
     RDKit          3D

 26 28  0  0  0  0  0  0  0  0999 V2000
    3.9107    1.1838   -1.4305 O   0  0  0  0  0  0  0  0  0  0  0  0
    3.1013    0.5407   -0.7207 C   0  0  0  0  0  0  0  0  0  0  0  0
    2.4938   -0.7986   -1.0189 C   0  0  0  0  0  0  0  0  0  0  0  0
    1.3313   -0.8818   -0.0099 C   0  0  2  0  0  0  0  0  0  0  0  0
    0.2199   -0.2790   -0.6506 N   0  0  0  0  0  0  0  0  0  0  0  0
   -1.0499   -0.4074   -0.0187 C   0  0  1  0  0  0  0  0  0  0  0  0
   -1.1678    0.2187    1.3294 C   0  0  0  0  0  0  0  0  0  0  0  0
   -2.4218    0.7403    1.5045 O   0  0  0  0  0  0  0  0  0  0  0  0
   -2.9506    1.0326    0.2776 C   0  0  0  0  0  0  0  0  0  0  0  0
   -2.2288    0.2514   -0.7671 C   0  0  2  0  0  0  0  0  0  0  0  0
   -2.1482   -1.2041   -0.6081 C   0  0  0  0  0  0  0  0  0  0  0  0
    1.8933   -0.1157    1.1361 C   0  0  0  0  0  0  0  0  0  0  0  0
    1.8158   -0.3101    2.3747 O   0  0  0  0  0  0  0  0  0  0  0  0
    2.6034    0.9827    0.5286 N   0  0  0  0  0  0  0  0  0  0  0  0
    3.1860   -1.6280   -0.8829 H   0  0  0  0  0  0  0  0  0  0  0  0
    2.0933   -0.7182   -2.0666 H   0  0  0  0  0  0  0  0  0  0  0  0
    1.2108   -1.9225    0.2744 H   0  0  0  0  0  0  0  0  0  0  0  0
    0.4403    0.7070   -0.8962 H   0  0  0  0  0  0  0  0  0  0  0  0
   -0.4426    1.0651    1.3892 H   0  0  0  0  0  0  0  0  0  0  0  0
   -0.9006   -0.4717    2.1581 H   0  0  0  0  0  0  0  0  0  0  0  0
   -2.9660    2.1148    0.0360 H   0  0  0  0  0  0  0  0  0  0  0  0
   -4.0133    0.7088    0.2768 H   0  0  0  0  0  0  0  0  0  0  0  0
   -1.9746    0.7486   -1.7401 H   0  0  0  0  0  0  0  0  0  0  0  0
   -2.8650   -1.7067    0.0640 H   0  0  0  0  0  0  0  0  0  0  0  0
   -1.8877   -1.7919   -1.5019 H   0  0  0  0  0  0  0  0  0  0  0  0
    2.7169    1.9412    0.9625 H   0  0  0  0  0  0  0  0  0  0  0  0
  1  2  2  0
  2  3  1  0
  3  4  1  0
  4  5  1  0
  6  5  1  6
  6  7  1  0
  7  8  1  0
  8  9  1  0
  9 10  1  0
 10 11  1  0
  4 12  1  0
 12 13  2  0
 12 14  1  0
 14  2  1  0
 10  6  1  0
 11  6  1  0
  3 15  1  0
  3 16  1  0
  4 17  1  1
  5 18  1  0
  7 19  1  0
  7 20  1  0
  9 21  1  0
  9 22  1  0
 10 23  1  6
 11 24  1  0
 11 25  1  0
 14 26  1  0
M  END
$$$$

     RDKit          3D

 26 28  0  0  0  0  0  0  0  0999 V2000
    3.8625    0.9359   -1.3086 O   0  0  0  0  0  0  0  0  0  0  0  0
    3.1673    0.2965   -0.4776 C   0  0  0  0  0  0  0  0  0  0  0  0
    2.3524   -0.9373   -0.7436 C   0  0  0  0  0  0  0  0  0  0  0  0
    1.1722   -0.7218    0.1336 C   0  0  2  0  0  0  0  0  0  0  0  0
    0.3972    0.3547   -0.2294 N   0  0  0  0  0  0  0  0  0  0  0  0
   -1.0003    0.3957   -0.3151 C   0  0  1  0  0  0  0  0  0  0  0  0
   -1.7571    0.1196   -1.5316 C   0  0  0  0  0  0  0  0  0  0  0  0
   -3.0998    0.3061   -1.1021 O   0  0  0  0  0  0  0  0  0  0  0  0
   -3.1509   -0.5241    0.0154 C   0  0  0  0  0  0  0  0  0  0  0  0
   -1.8514   -0.2280    0.7313 C   0  0  2  0  0  0  0  0  0  0  0  0
   -1.6008    1.2428    0.8499 C   0  0  0  0  0  0  0  0  0  0  0  0
    1.9075   -0.2217    1.4074 C   0  0  0  0  0  0  0  0  0  0  0  0
    1.6423   -0.4572    2.5509 O   0  0  0  0  0  0  0  0  0  0  0  0
    2.9765    0.5416    0.9152 N   0  0  0  0  0  0  0  0  0  0  0  0
    2.9559   -1.8437   -0.4591 H   0  0  0  0  0  0  0  0  0  0  0  0
    2.0937   -0.9206   -1.8119 H   0  0  0  0  0  0  0  0  0  0  0  0
    0.6417   -1.6645    0.4046 H   0  0  0  0  0  0  0  0  0  0  0  0
    0.9429    1.2015   -0.3605 H   0  0  0  0  0  0  0  0  0  0  0  0
   -1.6873   -0.8909   -1.9103 H   0  0  0  0  0  0  0  0  0  0  0  0
   -1.5995    0.9122   -2.3327 H   0  0  0  0  0  0  0  0  0  0  0  0
   -3.9782   -0.1209    0.6652 H   0  0  0  0  0  0  0  0  0  0  0  0
   -3.2991   -1.5744   -0.2512 H   0  0  0  0  0  0  0  0  0  0  0  0
   -1.5125   -0.9347    1.4790 H   0  0  0  0  0  0  0  0  0  0  0  0
   -0.8471    1.4853    1.6440 H   0  0  0  0  0  0  0  0  0  0  0  0
   -2.3176    2.0026    0.5869 H   0  0  0  0  0  0  0  0  0  0  0  0
    3.5900    1.2455    1.4501 H   0  0  0  0  0  0  0  0  0  0  0  0
  1  2  2  0
  2  3  1  0
  3  4  1  0
  4  5  1  0
  6  5  1  6
  6  7  1  0
  7  8  1  0
  8  9  1  0
  9 10  1  0
 10 11  1  0
  4 12  1  0
 12 13  2  0
 12 14  1  0
 14  2  1  0
 10  6  1  0
 11  6  1  0
  3 15  1  0
  3 16  1  0
  4 17  1  1
  5 18  1  0
  7 19  1  0
  7 20  1  0
  9 21  1  0
  9 22  1  0
 10 23  1  1
 11 24  1  0
 11 25  1  0
 14 26  1  0
M  END
$$$$

     RDKit          3D

 26 28  0  0  0  0  0  0  0  0999 V2000
    3.5946   -0.6753   -1.7248 O   0  0  0  0  0  0  0  0  0  0  0  0
    2.9766   -0.1988   -0.7564 C   0  0  0  0  0  0  0  0  0  0  0  0
    1.6326   -0.7023   -0.3093 C   0  0  0  0  0  0  0  0  0  0  0  0
    1.1631    0.3503    0.6511 C   0  0  2  0  0  0  0  0  0  0  0  0
    0.0958    1.1505    0.1830 N   0  0  0  0  0  0  0  0  0  0  0  0
   -1.1584    0.4687   -0.0034 C   0  0  1  0  0  0  0  0  0  0  0  0
   -1.9512    0.5670   -1.2518 C   0  0  0  0  0  0  0  0  0  0  0  0
   -2.5599   -0.6404   -1.5058 O   0  0  0  0  0  0  0  0  0  0  0  0
   -2.2261   -1.5333   -0.5434 C   0  0  0  0  0  0  0  0  0  0  0  0
   -1.3899   -0.8897    0.4867 C   0  0  2  0  0  0  0  0  0  0  0  0
   -2.0031    0.2069    1.2518 C   0  0  0  0  0  0  0  0  0  0  0  0
    2.3517    1.0961    1.0489 C   0  0  0  0  0  0  0  0  0  0  0  0
    2.4220    1.8222    2.0866 O   0  0  0  0  0  0  0  0  0  0  0  0
    3.3766    0.8762    0.1084 N   0  0  0  0  0  0  0  0  0  0  0  0
    1.7631   -1.7035    0.1706 H   0  0  0  0  0  0  0  0  0  0  0  0
    0.9855   -0.7920   -1.1742 H   0  0  0  0  0  0  0  0  0  0  0  0
    0.8399   -0.2133    1.5950 H   0  0  0  0  0  0  0  0  0  0  0  0
   -0.0078    2.0180    0.6962 H   0  0  0  0  0  0  0  0  0  0  0  0
   -2.7969    1.2956   -1.0493 H   0  0  0  0  0  0  0  0  0  0  0  0
   -1.3705    0.9744   -2.0863 H   0  0  0  0  0  0  0  0  0  0  0  0
   -1.6838   -2.3753   -1.0178 H   0  0  0  0  0  0  0  0  0  0  0  0
   -3.1398   -1.9534   -0.0377 H   0  0  0  0  0  0  0  0  0  0  0  0
   -0.6110   -1.5074    0.9327 H   0  0  0  0  0  0  0  0  0  0  0  0
   -1.5274    0.6451    2.1648 H   0  0  0  0  0  0  0  0  0  0  0  0
   -3.0747    0.3499    1.2209 H   0  0  0  0  0  0  0  0  0  0  0  0
    4.2989    1.3640   -0.0036 H   0  0  0  0  0  0  0  0  0  0  0  0
  1  2  2  0
  2  3  1  0
  3  4  1  0
  4  5  1  0
  6  5  1  1
  6  7  1  0
  7  8  1  0
  8  9  1  0
  9 10  1  0
 10 11  1  0
  4 12  1  0
 12 13  2  0
 12 14  1  0
 14  2  1  0
 10  6  1  0
 11  6  1  0
  3 15  1  0
  3 16  1  0
  4 17  1  1
  5 18  1  0
  7 19  1  0
  7 20  1  0
  9 21  1  0
  9 22  1  0
 10 23  1  1
 11 24  1  0
 11 25  1  0
 14 26  1  0
M  END
$$$$

     RDKit          3D

 26 28  0  0  0  0  0  0  0  0999 V2000
    3.5963    1.8247    0.9494 O   0  0  0  0  0  0  0  0  0  0  0  0
    2.9873    0.8397    0.4711 C   0  0  0  0  0  0  0  0  0  0  0  0
    1.7981    0.8925   -0.3870 C   0  0  0  0  0  0  0  0  0  0  0  0
    1.3459   -0.5142   -0.6272 C   0  0  2  0  0  0  0  0  0  0  0  0
    0.2050   -0.9225    0.1303 N   0  0  0  0  0  0  0  0  0  0  0  0
   -0.9968   -0.1969   -0.1356 C   0  0  1  0  0  0  0  0  0  0  0  0
   -1.6543   -0.1971   -1.4573 C   0  0  0  0  0  0  0  0  0  0  0  0
   -3.0099   -0.2367   -1.3328 O   0  0  0  0  0  0  0  0  0  0  0  0
   -3.3789   -0.0477   -0.0268 C   0  0  0  0  0  0  0  0  0  0  0  0
   -2.1472   -0.2436    0.8244 C   0  0  2  0  0  0  0  0  0  0  0  0
   -1.2473    0.9561    0.8295 C   0  0  0  0  0  0  0  0  0  0  0  0
    2.5042   -1.3120   -0.1458 C   0  0  0  0  0  0  0  0  0  0  0  0
    2.6789   -2.5242   -0.4524 O   0  0  0  0  0  0  0  0  0  0  0  0
    3.3486   -0.5238    0.6803 N   0  0  0  0  0  0  0  0  0  0  0  0
    1.0053    1.5602    0.0036 H   0  0  0  0  0  0  0  0  0  0  0  0
    2.1286    1.3099   -1.3838 H   0  0  0  0  0  0  0  0  0  0  0  0
    1.2656   -0.7579   -1.7103 H   0  0  0  0  0  0  0  0  0  0  0  0
    0.4587   -0.8769    1.1409 H   0  0  0  0  0  0  0  0  0  0  0  0
   -1.3459   -1.1565   -1.9711 H   0  0  0  0  0  0  0  0  0  0  0  0
   -1.3201    0.5940   -2.1501 H   0  0  0  0  0  0  0  0  0  0  0  0
   -4.2305   -0.6454    0.3106 H   0  0  0  0  0  0  0  0  0  0  0  0
   -3.7200    1.0271    0.0557 H   0  0  0  0  0  0  0  0  0  0  0  0
   -2.1547   -0.9616    1.6468 H   0  0  0  0  0  0  0  0  0  0  0  0
   -1.6184    1.9250    0.4404 H   0  0  0  0  0  0  0  0  0  0  0  0
   -0.6067    1.0546    1.7120 H   0  0  0  0  0  0  0  0  0  0  0  0
    4.1080   -0.8669    1.3338 H   0  0  0  0  0  0  0  0  0  0  0  0
  1  2  2  0
  2  3  1  0
  3  4  1  0
  4  5  1  0
  6  5  1  6
  6  7  1  0
  7  8  1  0
  8  9  1  0
  9 10  1  0
 10 11  1  0
  4 12  1  0
 12 13  2  0
 12 14  1  0
 14  2  1  0
 10  6  1  0
 11  6  1  0
  3 15  1  0
  3 16  1  0
  4 17  1  6
  5 18  1  0
  7 19  1  0
  7 20  1  0
  9 21  1  0
  9 22  1  0
 10 23  1  1
 11 24  1  0
 11 25  1  0
 14 26  1  0
M  END
$$$$

     RDKit          3D

 26 28  0  0  0  0  0  0  0  0999 V2000
    3.9827   -1.9648    0.4721 O   0  0  0  0  0  0  0  0  0  0  0  0
    3.2551   -0.9972    0.2274 C   0  0  0  0  0  0  0  0  0  0  0  0
    1.8085   -0.9185    0.5563 C   0  0  0  0  0  0  0  0  0  0  0  0
    1.3897    0.5041    0.2494 C   0  0  2  0  0  0  0  0  0  0  0  0
    0.1829    0.6524   -0.4460 N   0  0  0  0  0  0  0  0  0  0  0  0
   -1.0171    0.2181    0.1247 C   0  0  1  0  0  0  0  0  0  0  0  0
   -1.6177    0.7493    1.3729 C   0  0  0  0  0  0  0  0  0  0  0  0
   -2.9025    1.2134    1.0737 O   0  0  0  0  0  0  0  0  0  0  0  0
   -3.4001    0.4328    0.0546 C   0  0  0  0  0  0  0  0  0  0  0  0
   -2.2192    0.0198   -0.7638 C   0  0  2  0  0  0  0  0  0  0  0  0
   -1.4803   -1.1708   -0.2715 C   0  0  0  0  0  0  0  0  0  0  0  0
    2.4967    0.9946   -0.6490 C   0  0  0  0  0  0  0  0  0  0  0  0
    2.3943    1.9347   -1.4658 O   0  0  0  0  0  0  0  0  0  0  0  0
    3.6414    0.2200   -0.4081 N   0  0  0  0  0  0  0  0  0  0  0  0
    1.2300   -1.6625    0.0076 H   0  0  0  0  0  0  0  0  0  0  0  0
    1.7074   -1.1502    1.6519 H   0  0  0  0  0  0  0  0  0  0  0  0
    1.5014    1.0723    1.1826 H   0  0  0  0  0  0  0  0  0  0  0  0
    0.2940    0.4264   -1.4493 H   0  0  0  0  0  0  0  0  0  0  0  0
   -1.0951    1.5766    1.8503 H   0  0  0  0  0  0  0  0  0  0  0  0
   -1.6914   -0.0976    2.1052 H   0  0  0  0  0  0  0  0  0  0  0  0
   -3.9513   -0.4234    0.5062 H   0  0  0  0  0  0  0  0  0  0  0  0
   -4.0955    1.0840   -0.5438 H   0  0  0  0  0  0  0  0  0  0  0  0
   -2.1874    0.3483   -1.8114 H   0  0  0  0  0  0  0  0  0  0  0  0
   -1.9471   -1.8244    0.4965 H   0  0  0  0  0  0  0  0  0  0  0  0
   -0.9131   -1.7203   -1.0649 H   0  0  0  0  0  0  0  0  0  0  0  0
    4.6337    0.4829   -0.6523 H   0  0  0  0  0  0  0  0  0  0  0  0
  1  2  2  0
  2  3  1  0
  3  4  1  0
  4  5  1  0
  6  5  1  6
  6  7  1  0
  7  8  1  0
  8  9  1  0
  9 10  1  0
 10 11  1  0
  4 12  1  0
 12 13  2  0
 12 14  1  0
 14  2  1  0
 10  6  1  0
 11  6  1  0
  3 15  1  0
  3 16  1  0
  4 17  1  1
  5 18  1  0
  7 19  1  0
  7 20  1  0
  9 21  1  0
  9 22  1  0
 10 23  1  6
 11 24  1  0
 11 25  1  0
 14 26  1  0
M  END
$$$$

     RDKit          3D

 26 28  0  0  0  0  0  0  0  0999 V2000
    4.0159    1.9770   -0.1904 O   0  0  0  0  0  0  0  0  0  0  0  0
    3.2475    0.9882   -0.1488 C   0  0  0  0  0  0  0  0  0  0  0  0
    1.7788    0.9262    0.1899 C   0  0  0  0  0  0  0  0  0  0  0  0
    1.2522   -0.2946   -0.5187 C   0  0  2  0  0  0  0  0  0  0  0  0
    0.1869   -0.9724    0.0966 N   0  0  0  0  0  0  0  0  0  0  0  0
   -1.0563   -0.3700    0.2872 C   0  0  1  0  0  0  0  0  0  0  0  0
   -1.3477    0.8242    1.1109 C   0  0  0  0  0  0  0  0  0  0  0  0
   -1.8266    1.7441    0.1548 O   0  0  0  0  0  0  0  0  0  0  0  0
   -2.8466    0.9875   -0.4312 C   0  0  0  0  0  0  0  0  0  0  0  0
   -2.1143   -0.3049   -0.7652 C   0  0  2  0  0  0  0  0  0  0  0  0
   -2.2402   -1.3824    0.2166 C   0  0  0  0  0  0  0  0  0  0  0  0
    2.4662   -1.1796   -0.4623 C   0  0  0  0  0  0  0  0  0  0  0  0
    2.5457   -2.4321   -0.4454 O   0  0  0  0  0  0  0  0  0  0  0  0
    3.6231   -0.3512   -0.4275 N   0  0  0  0  0  0  0  0  0  0  0  0
    1.6941    0.7316    1.2857 H   0  0  0  0  0  0  0  0  0  0  0  0
    1.3486    1.8622   -0.1473 H   0  0  0  0  0  0  0  0  0  0  0  0
    1.1128   -0.0966   -1.6073 H   0  0  0  0  0  0  0  0  0  0  0  0
    0.0662   -1.8925   -0.3800 H   0  0  0  0  0  0  0  0  0  0  0  0
   -0.5813    1.2193    1.7547 H   0  0  0  0  0  0  0  0  0  0  0  0
   -2.2424    0.6320    1.7739 H   0  0  0  0  0  0  0  0  0  0  0  0
   -3.6260    0.8351    0.3459 H   0  0  0  0  0  0  0  0  0  0  0  0
   -3.2610    1.4720   -1.3423 H   0  0  0  0  0  0  0  0  0  0  0  0
   -1.8934   -0.5101   -1.8254 H   0  0  0  0  0  0  0  0  0  0  0  0
   -2.0215   -2.4025   -0.1539 H   0  0  0  0  0  0  0  0  0  0  0  0
   -2.9090   -1.3558    1.0781 H   0  0  0  0  0  0  0  0  0  0  0  0
    4.6281   -0.6545   -0.5813 H   0  0  0  0  0  0  0  0  0  0  0  0
  1  2  2  0
  2  3  1  0
  3  4  1  0
  4  5  1  0
  6  5  1  6
  6  7  1  0
  7  8  1  0
  8  9  1  0
  9 10  1  0
 10 11  1  0
  4 12  1  0
 12 13  2  0
 12 14  1  0
 14  2  1  0
 10  6  1  0
 11  6  1  0
  3 15  1  0
  3 16  1  0
  4 17  1  6
  5 18  1  0
  7 19  1  0
  7 20  1  0
  9 21  1  0
  9 22  1  0
 10 23  1  6
 11 24  1  0
 11 25  1  0
 14 26  1  0
M  END
$$$$

     RDKit          3D

 26 28  0  0  0  0  0  0  0  0999 V2000
    4.2411    1.0935    1.3316 O   0  0  0  0  0  0  0  0  0  0  0  0
    3.2404    0.5560    0.8124 C   0  0  0  0  0  0  0  0  0  0  0  0
    1.7870    0.8863    0.9128 C   0  0  0  0  0  0  0  0  0  0  0  0
    1.3456    0.6537   -0.4763 C   0  0  2  0  0  0  0  0  0  0  0  0
    0.0020    0.6436   -0.8053 N   0  0  0  0  0  0  0  0  0  0  0  0
   -0.9085   -0.2682   -0.2815 C   0  0  1  0  0  0  0  0  0  0  0  0
   -1.1741   -0.2269    1.2045 C   0  0  0  0  0  0  0  0  0  0  0  0
   -2.5278   -0.4358    1.3952 O   0  0  0  0  0  0  0  0  0  0  0  0
   -3.1663    0.1936    0.3505 C   0  0  0  0  0  0  0  0  0  0  0  0
   -2.3393   -0.1353   -0.8460 C   0  0  2  0  0  0  0  0  0  0  0  0
   -1.5536   -1.3771   -0.9987 C   0  0  0  0  0  0  0  0  0  0  0  0
    2.1023   -0.5895   -0.8607 C   0  0  0  0  0  0  0  0  0  0  0  0
    1.7556   -1.4365   -1.7106 O   0  0  0  0  0  0  0  0  0  0  0  0
    3.2720   -0.5814   -0.0572 N   0  0  0  0  0  0  0  0  0  0  0  0
    1.6968    1.9435    1.2497 H   0  0  0  0  0  0  0  0  0  0  0  0
    1.3836    0.1592    1.6458 H   0  0  0  0  0  0  0  0  0  0  0  0
    1.8502    1.4650   -1.1029 H   0  0  0  0  0  0  0  0  0  0  0  0
   -0.3747    1.4178   -1.3950 H   0  0  0  0  0  0  0  0  0  0  0  0
   -0.6659   -1.0794    1.7290 H   0  0  0  0  0  0  0  0  0  0  0  0
   -0.9084    0.7481    1.6367 H   0  0  0  0  0  0  0  0  0  0  0  0
   -4.1886   -0.1939    0.1655 H   0  0  0  0  0  0  0  0  0  0  0  0
   -3.1852    1.2872    0.5181 H   0  0  0  0  0  0  0  0  0  0  0  0
   -2.4904    0.4936   -1.7397 H   0  0  0  0  0  0  0  0  0  0  0  0
   -1.2989   -1.6683   -2.0258 H   0  0  0  0  0  0  0  0  0  0  0  0
   -1.9061   -2.2328   -0.3839 H   0  0  0  0  0  0  0  0  0  0  0  0
    4.0113   -1.3159   -0.1334 H   0  0  0  0  0  0  0  0  0  0  0  0
  1  2  2  0
  2  3  1  0
  3  4  1  0
  4  5  1  0
  6  5  1  6
  6  7  1  0
  7  8  1  0
  8  9  1  0
  9 10  1  0
 10 11  1  0
  4 12  1  0
 12 13  2  0
 12 14  1  0
 14  2  1  0
 10  6  1  0
 11  6  1  0
  3 15  1  0
  3 16  1  0
  4 17  1  6
  5 18  1  0
  7 19  1  0
  7 20  1  0
  9 21  1  0
  9 22  1  0
 10 23  1  6
 11 24  1  0
 11 25  1  0
 14 26  1  0
M  END
$$$$

     RDKit          3D

 26 28  0  0  0  0  0  0  0  0999 V2000
    4.1438   -1.1608    1.2137 O   0  0  0  0  0  0  0  0  0  0  0  0
    3.2909   -0.7275    0.4147 C   0  0  0  0  0  0  0  0  0  0  0  0
    2.1754   -1.4933   -0.2089 C   0  0  0  0  0  0  0  0  0  0  0  0
    1.1272   -0.3899   -0.2406 C   0  0  2  0  0  0  0  0  0  0  0  0
   -0.0852   -0.7262   -0.8810 N   0  0  0  0  0  0  0  0  0  0  0  0
   -1.1464   -0.0302   -0.2216 C   0  0  1  0  0  0  0  0  0  0  0  0
   -1.2296    1.4685   -0.2597 C   0  0  0  0  0  0  0  0  0  0  0  0
   -2.4735    1.8137    0.1890 O   0  0  0  0  0  0  0  0  0  0  0  0
   -3.2979    0.7286    0.2503 C   0  0  0  0  0  0  0  0  0  0  0  0
   -2.4587   -0.5210    0.1145 C   0  0  2  0  0  0  0  0  0  0  0  0
   -1.3931   -0.6353    1.1960 C   0  0  0  0  0  0  0  0  0  0  0  0
    1.9428    0.6945   -0.8419 C   0  0  0  0  0  0  0  0  0  0  0  0
    1.7039    1.5035   -1.7587 O   0  0  0  0  0  0  0  0  0  0  0  0
    3.1746    0.6045   -0.0928 N   0  0  0  0  0  0  0  0  0  0  0  0
    2.5233   -1.7113   -1.2443 H   0  0  0  0  0  0  0  0  0  0  0  0
    1.8689   -2.3895    0.3143 H   0  0  0  0  0  0  0  0  0  0  0  0
    0.9679   -0.1122    0.8266 H   0  0  0  0  0  0  0  0  0  0  0  0
   -0.0734   -0.5019   -1.9108 H   0  0  0  0  0  0  0  0  0  0  0  0
   -0.4191    1.8581    0.3834 H   0  0  0  0  0  0  0  0  0  0  0  0
   -1.0908    1.7973   -1.3082 H   0  0  0  0  0  0  0  0  0  0  0  0
   -4.1528    0.7529   -0.4279 H   0  0  0  0  0  0  0  0  0  0  0  0
   -3.7121    0.6869    1.2891 H   0  0  0  0  0  0  0  0  0  0  0  0
   -2.9219   -1.4299   -0.2696 H   0  0  0  0  0  0  0  0  0  0  0  0
   -0.9505   -1.6016    1.4421 H   0  0  0  0  0  0  0  0  0  0  0  0
   -1.3481    0.1069    1.9941 H   0  0  0  0  0  0  0  0  0  0  0  0
    3.8343    1.4152    0.0379 H   0  0  0  0  0  0  0  0  0  0  0  0
  1  2  2  0
  2  3  1  0
  3  4  1  0
  4  5  1  0
  6  5  1  6
  6  7  1  0
  7  8  1  0
  8  9  1  0
  9 10  1  0
 10 11  1  0
  4 12  1  0
 12 13  2  0
 12 14  1  0
 14  2  1  0
 10  6  1  0
 11  6  1  0
  3 15  1  0
  3 16  1  0
  4 17  1  1
  5 18  1  0
  7 19  1  0
  7 20  1  0
  9 21  1  0
  9 22  1  0
 10 23  1  6
 11 24  1  0
 11 25  1  0
 14 26  1  0
M  END
$$$$
