
     RDKit          3D

 28 28  0  0  0  0  0  0  0  0999 V2000
   -4.3541   -0.0490   -1.1106 N   0  0  0  0  0  0  0  0  0  0  0  0
   -3.6583    0.8830   -0.3023 C   0  0  0  0  0  0  0  0  0  0  0  0
   -4.1201    1.9533    0.1123 O   0  0  0  0  0  0  0  0  0  0  0  0
   -2.2410    0.5278    0.0752 C   0  0  0  0  0  0  0  0  0  0  0  0
   -1.8771   -0.7406   -0.4931 N   0  0  0  0  0  0  0  0  0  0  0  0
   -0.5395   -1.0782   -0.1954 C   0  0  0  0  0  0  0  0  0  0  0  0
    0.5713   -0.2043   -0.7397 C   0  0  0  0  0  0  0  0  0  0  0  0
    1.3504   -0.6253    0.5181 C   0  0  0  0  0  0  0  0  0  0  0  0
    2.2725    0.4376    1.0352 C   0  0  0  0  0  0  0  0  0  0  0  0
    3.2535    0.7583   -0.0324 C   0  0  0  0  0  0  0  0  0  0  0  0
    4.5467    0.1620   -0.0319 N   0  0  0  0  0  0  0  0  0  0  0  0
    2.9495    1.5617   -0.9480 O   0  0  0  0  0  0  0  0  0  0  0  0
   -0.0377   -0.6433    1.1923 C   0  0  0  0  0  0  0  0  0  0  0  0
   -4.6060   -0.9768   -0.7123 H   0  0  0  0  0  0  0  0  0  0  0  0
   -4.6128    0.1738   -2.0746 H   0  0  0  0  0  0  0  0  0  0  0  0
   -2.3311    0.3654    1.1979 H   0  0  0  0  0  0  0  0  0  0  0  0
   -1.5603    1.3487   -0.1347 H   0  0  0  0  0  0  0  0  0  0  0  0
   -2.0351   -0.7157   -1.5181 H   0  0  0  0  0  0  0  0  0  0  0  0
   -0.2545   -2.1522   -0.4075 H   0  0  0  0  0  0  0  0  0  0  0  0
    1.0426   -0.5785   -1.6782 H   0  0  0  0  0  0  0  0  0  0  0  0
    0.2873    0.8630   -0.7278 H   0  0  0  0  0  0  0  0  0  0  0  0
    1.7680   -1.6155    0.3800 H   0  0  0  0  0  0  0  0  0  0  0  0
    2.8662    0.0250    1.9006 H   0  0  0  0  0  0  0  0  0  0  0  0
    1.7612    1.3398    1.3770 H   0  0  0  0  0  0  0  0  0  0  0  0
    5.2206    0.3015   -0.8101 H   0  0  0  0  0  0  0  0  0  0  0  0
    4.8479   -0.4383    0.7659 H   0  0  0  0  0  0  0  0  0  0  0  0
   -0.3526    0.3989    1.3722 H   0  0  0  0  0  0  0  0  0  0  0  0
   -0.1573   -1.3712    1.9899 H   0  0  0  0  0  0  0  0  0  0  0  0
  1  2  1  0
  2  3  2  0
  2  4  1  0
  4  5  1  0
  5  6  1  0
  6  7  1  0
  7  8  1  0
  8  9  1  0
  9 10  1  0
 10 11  1  0
 10 12  2  0
  8 13  1  0
 13  6  1  0
  1 14  1  0
  1 15  1  0
  4 16  1  0
  4 17  1  0
  5 18  1  0
  6 19  1  0
  7 20  1  0
  7 21  1  0
  8 22  1  0
  9 23  1  0
  9 24  1  0
 11 25  1  0
 11 26  1  0
 13 27  1  0
 13 28  1  0
M  END
$$$$

     RDKit          3D

 28 28  0  0  0  0  0  0  0  0999 V2000
   -4.6527   -0.0850    0.7872 N   0  0  0  0  0  0  0  0  0  0  0  0
   -3.2781    0.2551    0.9155 C   0  0  0  0  0  0  0  0  0  0  0  0
   -2.7518    0.1616    2.0370 O   0  0  0  0  0  0  0  0  0  0  0  0
   -2.5529    0.6980   -0.2862 C   0  0  0  0  0  0  0  0  0  0  0  0
   -1.1750    1.0127   -0.0566 N   0  0  0  0  0  0  0  0  0  0  0  0
   -0.4571   -0.1937    0.2447 C   0  0  0  0  0  0  0  0  0  0  0  0
    0.9730    0.0160    0.7610 C   0  0  0  0  0  0  0  0  0  0  0  0
    1.4349   -0.7971   -0.4118 C   0  0  0  0  0  0  0  0  0  0  0  0
    2.4798   -0.0491   -1.2029 C   0  0  0  0  0  0  0  0  0  0  0  0
    3.6229    0.2252   -0.3318 C   0  0  0  0  0  0  0  0  0  0  0  0
    3.6416   -0.1906    1.0283 N   0  0  0  0  0  0  0  0  0  0  0  0
    4.6629    0.8429   -0.7144 O   0  0  0  0  0  0  0  0  0  0  0  0
    0.0605   -0.8375   -1.0277 C   0  0  0  0  0  0  0  0  0  0  0  0
   -5.3644    0.1699    1.5208 H   0  0  0  0  0  0  0  0  0  0  0  0
   -5.0335   -0.6031   -0.0367 H   0  0  0  0  0  0  0  0  0  0  0  0
   -3.0690    1.6197   -0.6678 H   0  0  0  0  0  0  0  0  0  0  0  0
   -2.6733   -0.0502   -1.1123 H   0  0  0  0  0  0  0  0  0  0  0  0
   -0.7977    1.4094   -0.9577 H   0  0  0  0  0  0  0  0  0  0  0  0
   -1.0135   -0.8613    0.9032 H   0  0  0  0  0  0  0  0  0  0  0  0
    1.2550    1.0863    0.7393 H   0  0  0  0  0  0  0  0  0  0  0  0
    1.1285   -0.4484    1.7647 H   0  0  0  0  0  0  0  0  0  0  0  0
    1.8203   -1.8066   -0.1618 H   0  0  0  0  0  0  0  0  0  0  0  0
    2.7476   -0.5386   -2.1575 H   0  0  0  0  0  0  0  0  0  0  0  0
    2.0606    0.9555   -1.5096 H   0  0  0  0  0  0  0  0  0  0  0  0
    3.3391   -1.1711    1.2145 H   0  0  0  0  0  0  0  0  0  0  0  0
    3.9481    0.4802    1.7739 H   0  0  0  0  0  0  0  0  0  0  0  0
   -0.3263   -1.8636   -1.1086 H   0  0  0  0  0  0  0  0  0  0  0  0
   -0.0292   -0.2244   -1.9468 H   0  0  0  0  0  0  0  0  0  0  0  0
  1  2  1  0
  2  3  2  0
  2  4  1  0
  4  5  1  0
  5  6  1  0
  6  7  1  0
  7  8  1  0
  8  9  1  0
  9 10  1  0
 10 11  1  0
 10 12  2  0
  8 13  1  0
 13  6  1  0
  1 14  1  0
  1 15  1  0
  4 16  1  0
  4 17  1  0
  5 18  1  0
  6 19  1  0
  7 20  1  0
  7 21  1  0
  8 22  1  0
  9 23  1  0
  9 24  1  0
 11 25  1  0
 11 26  1  0
 13 27  1  0
 13 28  1  0
M  END
$$$$

     RDKit          3D

 28 28  0  0  0  0  0  0  0  0999 V2000
    5.1726    0.2242    0.1371 N   0  0  0  0  0  0  0  0  0  0  0  0
    3.8378    0.4350   -0.2351 C   0  0  0  0  0  0  0  0  0  0  0  0
    3.5383    1.5488   -0.7273 O   0  0  0  0  0  0  0  0  0  0  0  0
    2.7582   -0.5876   -0.0769 C   0  0  0  0  0  0  0  0  0  0  0  0
    1.5043   -0.0237   -0.5584 N   0  0  0  0  0  0  0  0  0  0  0  0
    0.3834   -0.8985   -0.2991 C   0  0  0  0  0  0  0  0  0  0  0  0
   -0.8706   -0.4239   -0.9504 C   0  0  0  0  0  0  0  0  0  0  0  0
   -1.5853   -0.5746    0.3677 C   0  0  0  0  0  0  0  0  0  0  0  0
   -2.4714    0.5848    0.7697 C   0  0  0  0  0  0  0  0  0  0  0  0
   -3.5354    0.8389   -0.2252 C   0  0  0  0  0  0  0  0  0  0  0  0
   -4.8718    1.0122    0.1899 N   0  0  0  0  0  0  0  0  0  0  0  0
   -3.2736    0.8992   -1.4394 O   0  0  0  0  0  0  0  0  0  0  0  0
   -0.2410   -0.4757    1.0425 C   0  0  0  0  0  0  0  0  0  0  0  0
    5.9269    0.5490   -0.5072 H   0  0  0  0  0  0  0  0  0  0  0  0
    5.4739   -0.2480    1.0199 H   0  0  0  0  0  0  0  0  0  0  0  0
    3.0669   -1.4427   -0.7499 H   0  0  0  0  0  0  0  0  0  0  0  0
    2.7432   -0.9145    0.9550 H   0  0  0  0  0  0  0  0  0  0  0  0
    1.6179    0.1734   -1.5785 H   0  0  0  0  0  0  0  0  0  0  0  0
    0.5388   -1.9717   -0.3721 H   0  0  0  0  0  0  0  0  0  0  0  0
   -0.8866    0.6668   -1.2236 H   0  0  0  0  0  0  0  0  0  0  0  0
   -1.2755   -1.0768   -1.7552 H   0  0  0  0  0  0  0  0  0  0  0  0
   -2.0428   -1.5848    0.4897 H   0  0  0  0  0  0  0  0  0  0  0  0
   -2.8839    0.3170    1.7645 H   0  0  0  0  0  0  0  0  0  0  0  0
   -1.8120    1.4982    0.8352 H   0  0  0  0  0  0  0  0  0  0  0  0
   -5.4115    0.1740    0.5308 H   0  0  0  0  0  0  0  0  0  0  0  0
   -5.3656    1.9205    0.1832 H   0  0  0  0  0  0  0  0  0  0  0  0
   -0.0169    0.5783    1.2670 H   0  0  0  0  0  0  0  0  0  0  0  0
   -0.0186   -1.1977    1.8462 H   0  0  0  0  0  0  0  0  0  0  0  0
  1  2  1  0
  2  3  2  0
  2  4  1  0
  4  5  1  0
  5  6  1  0
  6  7  1  0
  7  8  1  0
  8  9  1  0
  9 10  1  0
 10 11  1  0
 10 12  2  0
  8 13  1  0
 13  6  1  0
  1 14  1  0
  1 15  1  0
  4 16  1  0
  4 17  1  0
  5 18  1  0
  6 19  1  0
  7 20  1  0
  7 21  1  0
  8 22  1  0
  9 23  1  0
  9 24  1  0
 11 25  1  0
 11 26  1  0
 13 27  1  0
 13 28  1  0
M  END
$$$$

     RDKit          3D

 28 28  0  0  0  0  0  0  0  0999 V2000
    4.6543    1.1569    0.0329 N   0  0  0  0  0  0  0  0  0  0  0  0
    3.2419    0.8579    0.2582 C   0  0  0  0  0  0  0  0  0  0  0  0
    2.4663    1.8404    0.3545 O   0  0  0  0  0  0  0  0  0  0  0  0
    2.9309   -0.5562    0.3375 C   0  0  0  0  0  0  0  0  0  0  0  0
    1.6363   -1.0049    0.5318 N   0  0  0  0  0  0  0  0  0  0  0  0
    0.6297   -0.8879   -0.4126 C   0  0  0  0  0  0  0  0  0  0  0  0
    0.0548    0.4584   -0.7859 C   0  0  0  0  0  0  0  0  0  0  0  0
   -1.3179   -0.2641   -0.9180 C   0  0  0  0  0  0  0  0  0  0  0  0
   -2.3958    0.5977   -0.3626 C   0  0  0  0  0  0  0  0  0  0  0  0
   -3.7412   -0.0343   -0.4610 C   0  0  0  0  0  0  0  0  0  0  0  0
   -4.8339    0.6477    0.1183 N   0  0  0  0  0  0  0  0  0  0  0  0
   -3.9157   -1.1394   -1.0348 O   0  0  0  0  0  0  0  0  0  0  0  0
   -0.7495   -1.2630    0.0916 C   0  0  0  0  0  0  0  0  0  0  0  0
    5.2796    1.2651    0.8527 H   0  0  0  0  0  0  0  0  0  0  0  0
    4.9822    1.2472   -0.9379 H   0  0  0  0  0  0  0  0  0  0  0  0
    3.4664   -1.0444   -0.5400 H   0  0  0  0  0  0  0  0  0  0  0  0
    3.5546   -0.9765    1.2175 H   0  0  0  0  0  0  0  0  0  0  0  0
    1.4636   -1.5529    1.3795 H   0  0  0  0  0  0  0  0  0  0  0  0
    0.8078   -1.4647   -1.3925 H   0  0  0  0  0  0  0  0  0  0  0  0
    0.3221    0.8659   -1.7570 H   0  0  0  0  0  0  0  0  0  0  0  0
   -0.0078    1.1729    0.0797 H   0  0  0  0  0  0  0  0  0  0  0  0
   -1.4657   -0.7060   -1.9018 H   0  0  0  0  0  0  0  0  0  0  0  0
   -2.4163    1.5544   -0.9200 H   0  0  0  0  0  0  0  0  0  0  0  0
   -2.2296    0.8069    0.7165 H   0  0  0  0  0  0  0  0  0  0  0  0
   -5.4318    1.2729   -0.4498 H   0  0  0  0  0  0  0  0  0  0  0  0
   -5.0049    0.4921    1.1454 H   0  0  0  0  0  0  0  0  0  0  0  0
   -0.9772   -1.0234    1.1331 H   0  0  0  0  0  0  0  0  0  0  0  0
   -1.0032   -2.3186   -0.1632 H   0  0  0  0  0  0  0  0  0  0  0  0
  1  2  1  0
  2  3  2  0
  2  4  1  0
  4  5  1  0
  5  6  1  0
  6  7  1  0
  7  8  1  0
  8  9  1  0
  9 10  1  0
 10 11  1  0
 10 12  2  0
  8 13  1  0
 13  6  1  0
  1 14  1  0
  1 15  1  0
  4 16  1  0
  4 17  1  0
  5 18  1  0
  6 19  1  0
  7 20  1  0
  7 21  1  0
  8 22  1  0
  9 23  1  0
  9 24  1  0
 11 25  1  0
 11 26  1  0
 13 27  1  0
 13 28  1  0
M  END
$$$$

     RDKit          3D

 28 28  0  0  0  0  0  0  0  0999 V2000
   -5.0555    0.5228   -0.1479 N   0  0  0  0  0  0  0  0  0  0  0  0
   -3.9051   -0.2874   -0.2517 C   0  0  0  0  0  0  0  0  0  0  0  0
   -4.0384   -1.4608   -0.7577 O   0  0  0  0  0  0  0  0  0  0  0  0
   -2.5845    0.2087    0.2128 C   0  0  0  0  0  0  0  0  0  0  0  0
   -1.5844   -0.7746    0.0166 N   0  0  0  0  0  0  0  0  0  0  0  0
   -0.2739   -0.4585    0.4460 C   0  0  0  0  0  0  0  0  0  0  0  0
    0.7742   -0.8404   -0.5952 C   0  0  0  0  0  0  0  0  0  0  0  0
    1.4627    0.4608   -0.3002 C   0  0  0  0  0  0  0  0  0  0  0  0
    2.5707    0.3140    0.6966 C   0  0  0  0  0  0  0  0  0  0  0  0
    3.5956   -0.5861    0.1527 C   0  0  0  0  0  0  0  0  0  0  0  0
    4.5662    0.0016   -0.7117 N   0  0  0  0  0  0  0  0  0  0  0  0
    3.6404   -1.7893    0.4085 O   0  0  0  0  0  0  0  0  0  0  0  0
    0.1530    0.9790    0.2371 C   0  0  0  0  0  0  0  0  0  0  0  0
   -5.3631    1.0783   -0.9494 H   0  0  0  0  0  0  0  0  0  0  0  0
   -5.5782    0.5373    0.7568 H   0  0  0  0  0  0  0  0  0  0  0  0
   -2.3593    1.1227   -0.4046 H   0  0  0  0  0  0  0  0  0  0  0  0
   -2.6779    0.5598    1.2617 H   0  0  0  0  0  0  0  0  0  0  0  0
   -1.8245   -1.7337   -0.0759 H   0  0  0  0  0  0  0  0  0  0  0  0
    0.0926   -0.8198    1.4344 H   0  0  0  0  0  0  0  0  0  0  0  0
    1.3764   -1.7286   -0.3095 H   0  0  0  0  0  0  0  0  0  0  0  0
    0.3887   -0.8579   -1.6159 H   0  0  0  0  0  0  0  0  0  0  0  0
    1.7770    1.0363   -1.2256 H   0  0  0  0  0  0  0  0  0  0  0  0
    3.0293    1.2596    1.0051 H   0  0  0  0  0  0  0  0  0  0  0  0
    2.1535   -0.2126    1.5981 H   0  0  0  0  0  0  0  0  0  0  0  0
    4.6056   -0.3430   -1.6719 H   0  0  0  0  0  0  0  0  0  0  0  0
    5.1995    0.7431   -0.3882 H   0  0  0  0  0  0  0  0  0  0  0  0
    0.3181    1.5519    1.1618 H   0  0  0  0  0  0  0  0  0  0  0  0
   -0.4587    1.5171   -0.5470 H   0  0  0  0  0  0  0  0  0  0  0  0
  1  2  1  0
  2  3  2  0
  2  4  1  0
  4  5  1  0
  5  6  1  0
  6  7  1  0
  7  8  1  0
  8  9  1  0
  9 10  1  0
 10 11  1  0
 10 12  2  0
  8 13  1  0
 13  6  1  0
  1 14  1  0
  1 15  1  0
  4 16  1  0
  4 17  1  0
  5 18  1  0
  6 19  1  0
  7 20  1  0
  7 21  1  0
  8 22  1  0
  9 23  1  0
  9 24  1  0
 11 25  1  0
 11 26  1  0
 13 27  1  0
 13 28  1  0
M  END
$$$$

     RDKit          3D

 28 28  0  0  0  0  0  0  0  0999 V2000
   -4.4402    0.1379    0.6309 N   0  0  0  0  0  0  0  0  0  0  0  0
   -3.4240    1.1015    0.7495 C   0  0  0  0  0  0  0  0  0  0  0  0
   -3.6263    2.2091    1.2724 O   0  0  0  0  0  0  0  0  0  0  0  0
   -2.0620    0.7805    0.2304 C   0  0  0  0  0  0  0  0  0  0  0  0
   -2.0021   -0.5317   -0.3378 N   0  0  0  0  0  0  0  0  0  0  0  0
   -0.7128   -0.8785   -0.7817 C   0  0  0  0  0  0  0  0  0  0  0  0
    0.4003   -0.9888    0.2658 C   0  0  0  0  0  0  0  0  0  0  0  0
    1.3262   -0.5498   -0.8860 C   0  0  0  0  0  0  0  0  0  0  0  0
    2.4511    0.3114   -0.4066 C   0  0  0  0  0  0  0  0  0  0  0  0
    3.2823   -0.4110    0.5784 C   0  0  0  0  0  0  0  0  0  0  0  0
    4.3934    0.2123    1.1568 N   0  0  0  0  0  0  0  0  0  0  0  0
    2.9836   -1.5838    0.8900 O   0  0  0  0  0  0  0  0  0  0  0  0
    0.1037    0.2845   -1.3361 C   0  0  0  0  0  0  0  0  0  0  0  0
   -5.3407    0.2409    1.1813 H   0  0  0  0  0  0  0  0  0  0  0  0
   -4.3854   -0.7074    0.0222 H   0  0  0  0  0  0  0  0  0  0  0  0
   -1.9437    1.5022   -0.6386 H   0  0  0  0  0  0  0  0  0  0  0  0
   -1.2811    0.9627    0.9598 H   0  0  0  0  0  0  0  0  0  0  0  0
   -2.3744   -1.2401    0.3426 H   0  0  0  0  0  0  0  0  0  0  0  0
   -0.6621   -1.7323   -1.5275 H   0  0  0  0  0  0  0  0  0  0  0  0
    0.3610   -0.1730    0.9811 H   0  0  0  0  0  0  0  0  0  0  0  0
    0.5932   -2.0032    0.6201 H   0  0  0  0  0  0  0  0  0  0  0  0
    1.5307   -1.3168   -1.6352 H   0  0  0  0  0  0  0  0  0  0  0  0
    2.0114    1.1969    0.1014 H   0  0  0  0  0  0  0  0  0  0  0  0
    3.1256    0.6013   -1.2393 H   0  0  0  0  0  0  0  0  0  0  0  0
    5.1447   -0.2845    1.6845 H   0  0  0  0  0  0  0  0  0  0  0  0
    4.5138    1.2461    1.0761 H   0  0  0  0  0  0  0  0  0  0  0  0
   -0.0048    1.1619   -0.6612 H   0  0  0  0  0  0  0  0  0  0  0  0
    0.0386    0.4517   -2.4061 H   0  0  0  0  0  0  0  0  0  0  0  0
  1  2  1  0
  2  3  2  0
  2  4  1  0
  4  5  1  0
  5  6  1  0
  6  7  1  0
  7  8  1  0
  8  9  1  0
  9 10  1  0
 10 11  1  0
 10 12  2  0
  8 13  1  0
 13  6  1  0
  1 14  1  0
  1 15  1  0
  4 16  1  0
  4 17  1  0
  5 18  1  0
  6 19  1  0
  7 20  1  0
  7 21  1  0
  8 22  1  0
  9 23  1  0
  9 24  1  0
 11 25  1  0
 11 26  1  0
 13 27  1  0
 13 28  1  0
M  END
$$$$

     RDKit          3D

 28 28  0  0  0  0  0  0  0  0999 V2000
   -1.3534   -0.9720    2.6474 N   0  0  0  0  0  0  0  0  0  0  0  0
   -2.0800   -1.5296    1.5836 C   0  0  0  0  0  0  0  0  0  0  0  0
   -2.4272   -2.7755    1.8211 O   0  0  0  0  0  0  0  0  0  0  0  0
   -2.5026   -0.9842    0.3183 C   0  0  0  0  0  0  0  0  0  0  0  0
   -2.1690    0.2919   -0.0346 N   0  0  0  0  0  0  0  0  0  0  0  0
   -0.9430    0.8042   -0.3887 C   0  0  0  0  0  0  0  0  0  0  0  0
    0.1344    0.9863    0.6069 C   0  0  0  0  0  0  0  0  0  0  0  0
    0.9515   -0.1625    0.0828 C   0  0  0  0  0  0  0  0  0  0  0  0
    2.3717    0.1669   -0.3385 C   0  0  0  0  0  0  0  0  0  0  0  0
    2.4054    1.1547   -1.4548 C   0  0  0  0  0  0  0  0  0  0  0  0
    2.6097    0.6321   -2.7921 N   0  0  0  0  0  0  0  0  0  0  0  0
    2.2646    2.3743   -1.2302 O   0  0  0  0  0  0  0  0  0  0  0  0
   -0.0136   -0.1889   -1.0967 C   0  0  0  0  0  0  0  0  0  0  0  0
   -1.8073   -0.3529    3.3510 H   0  0  0  0  0  0  0  0  0  0  0  0
   -0.3379   -1.1554    2.7596 H   0  0  0  0  0  0  0  0  0  0  0  0
   -3.6610   -1.0393    0.3451 H   0  0  0  0  0  0  0  0  0  0  0  0
   -2.3387   -1.7481   -0.5334 H   0  0  0  0  0  0  0  0  0  0  0  0
   -2.8005    1.0237    0.4324 H   0  0  0  0  0  0  0  0  0  0  0  0
   -1.0503    1.7547   -1.0102 H   0  0  0  0  0  0  0  0  0  0  0  0
    0.7572    1.9360    0.4243 H   0  0  0  0  0  0  0  0  0  0  0  0
   -0.0944    0.9745    1.6764 H   0  0  0  0  0  0  0  0  0  0  0  0
    0.9555   -1.0735    0.7048 H   0  0  0  0  0  0  0  0  0  0  0  0
    2.8633    0.6282    0.5528 H   0  0  0  0  0  0  0  0  0  0  0  0
    2.8886   -0.7591   -0.5539 H   0  0  0  0  0  0  0  0  0  0  0  0
    2.5141   -0.3901   -2.9806 H   0  0  0  0  0  0  0  0  0  0  0  0
    2.8595    1.3139   -3.5364 H   0  0  0  0  0  0  0  0  0  0  0  0
    0.4120    0.2775   -1.9842 H   0  0  0  0  0  0  0  0  0  0  0  0
   -0.4085   -1.1877   -1.2921 H   0  0  0  0  0  0  0  0  0  0  0  0
  1  2  1  0
  2  3  2  0
  2  4  1  0
  4  5  1  0
  5  6  1  0
  6  7  1  0
  7  8  1  0
  8  9  1  0
  9 10  1  0
 10 11  1  0
 10 12  2  0
  8 13  1  0
 13  6  1  0
  1 14  1  0
  1 15  1  0
  4 16  1  0
  4 17  1  0
  5 18  1  0
  6 19  1  0
  7 20  1  0
  7 21  1  0
  8 22  1  0
  9 23  1  0
  9 24  1  0
 11 25  1  0
 11 26  1  0
 13 27  1  0
 13 28  1  0
M  END
$$$$

     RDKit          3D

 28 28  0  0  0  0  0  0  0  0999 V2000
   -4.7909    0.2119    0.7233 N   0  0  0  0  0  0  0  0  0  0  0  0
   -3.5087    0.1474    0.1138 C   0  0  0  0  0  0  0  0  0  0  0  0
   -3.1965    1.0758   -0.6789 O   0  0  0  0  0  0  0  0  0  0  0  0
   -2.5510   -0.9449    0.3727 C   0  0  0  0  0  0  0  0  0  0  0  0
   -1.3181   -0.7787   -0.3654 N   0  0  0  0  0  0  0  0  0  0  0  0
   -0.5468    0.3545    0.1122 C   0  0  0  0  0  0  0  0  0  0  0  0
    0.2272    0.9716   -1.0136 C   0  0  0  0  0  0  0  0  0  0  0  0
    1.4443    0.2343   -0.5314 C   0  0  0  0  0  0  0  0  0  0  0  0
    2.6648    1.1243   -0.4770 C   0  0  0  0  0  0  0  0  0  0  0  0
    3.8767    0.4415   -0.0131 C   0  0  0  0  0  0  0  0  0  0  0  0
    3.9089   -0.9512    0.1687 N   0  0  0  0  0  0  0  0  0  0  0  0
    4.9124    1.1066    0.2277 O   0  0  0  0  0  0  0  0  0  0  0  0
    0.7600    0.0084    0.7739 C   0  0  0  0  0  0  0  0  0  0  0  0
   -4.9810    1.0295    1.3528 H   0  0  0  0  0  0  0  0  0  0  0  0
   -5.5437   -0.4934    0.5852 H   0  0  0  0  0  0  0  0  0  0  0  0
   -2.4017   -1.0448    1.4684 H   0  0  0  0  0  0  0  0  0  0  0  0
   -3.0167   -1.9023    0.0103 H   0  0  0  0  0  0  0  0  0  0  0  0
   -1.5847   -0.6688   -1.3752 H   0  0  0  0  0  0  0  0  0  0  0  0
   -1.1319    1.0721    0.7309 H   0  0  0  0  0  0  0  0  0  0  0  0
   -0.1199    0.6953   -2.0303 H   0  0  0  0  0  0  0  0  0  0  0  0
    0.3998    2.0844   -0.9078 H   0  0  0  0  0  0  0  0  0  0  0  0
    1.5733   -0.7084   -1.0646 H   0  0  0  0  0  0  0  0  0  0  0  0
    2.8642    1.4583   -1.5309 H   0  0  0  0  0  0  0  0  0  0  0  0
    2.4710    2.0276    0.1168 H   0  0  0  0  0  0  0  0  0  0  0  0
    4.1080   -1.5704   -0.6334 H   0  0  0  0  0  0  0  0  0  0  0  0
    3.7354   -1.3489    1.1030 H   0  0  0  0  0  0  0  0  0  0  0  0
    0.7294   -1.0314    1.1733 H   0  0  0  0  0  0  0  0  0  0  0  0
    1.0161    0.7211    1.5887 H   0  0  0  0  0  0  0  0  0  0  0  0
  1  2  1  0
  2  3  2  0
  2  4  1  0
  4  5  1  0
  5  6  1  0
  6  7  1  0
  7  8  1  0
  8  9  1  0
  9 10  1  0
 10 11  1  0
 10 12  2  0
  8 13  1  0
 13  6  1  0
  1 14  1  0
  1 15  1  0
  4 16  1  0
  4 17  1  0
  5 18  1  0
  6 19  1  0
  7 20  1  0
  7 21  1  0
  8 22  1  0
  9 23  1  0
  9 24  1  0
 11 25  1  0
 11 26  1  0
 13 27  1  0
 13 28  1  0
M  END
$$$$
