
     RDKit          3D

 31 31  0  0  0  0  0  0  0  0999 V2000
   -3.0979    1.7313    0.2184 C   0  0  0  0  0  0  0  0  0  0  0  0
   -1.8364    1.4574    0.6645 O   0  0  0  0  0  0  0  0  0  0  0  0
   -1.3575    0.1968    0.4681 C   0  0  1  0  0  0  0  0  0  0  0  0
   -2.1580   -0.9028    1.1233 C   0  0  0  0  0  0  0  0  0  0  0  0
   -3.4599   -0.9848    0.6997 O   0  0  0  0  0  0  0  0  0  0  0  0
   -1.0391   -0.1248   -0.9704 C   0  0  0  0  0  0  0  0  0  0  0  0
    0.0437   -1.2088   -0.8131 C   0  0  0  0  0  0  0  0  0  0  0  0
    0.6943   -0.8880    0.3664 N   0  0  0  0  0  0  0  0  0  0  0  0
    2.0289   -1.1612    0.6104 C   0  0  0  0  0  0  0  0  0  0  0  0
    3.0625   -0.4259   -0.1690 C   0  0  0  0  0  0  0  0  0  0  0  0
    3.0105    0.9516    0.0018 O   0  0  0  0  0  0  0  0  0  0  0  0
    3.9301    1.6138   -0.6947 N   0  0  0  0  0  0  0  0  0  0  0  0
    0.0417    0.1424    1.0866 C   0  0  0  0  0  0  0  0  0  0  0  0
   -3.2212    1.5858   -0.8836 H   0  0  0  0  0  0  0  0  0  0  0  0
   -3.2355    2.8500    0.3422 H   0  0  0  0  0  0  0  0  0  0  0  0
   -3.9211    1.2962    0.8099 H   0  0  0  0  0  0  0  0  0  0  0  0
   -2.1670   -0.7242    2.2287 H   0  0  0  0  0  0  0  0  0  0  0  0
   -1.6273   -1.8542    0.9848 H   0  0  0  0  0  0  0  0  0  0  0  0
   -3.5428   -1.3798   -0.1984 H   0  0  0  0  0  0  0  0  0  0  0  0
   -1.8935   -0.4849   -1.5480 H   0  0  0  0  0  0  0  0  0  0  0  0
   -0.5327    0.7673   -1.4047 H   0  0  0  0  0  0  0  0  0  0  0  0
   -0.5250   -2.1582   -0.7060 H   0  0  0  0  0  0  0  0  0  0  0  0
    0.6135   -1.1954   -1.7489 H   0  0  0  0  0  0  0  0  0  0  0  0
    2.2144   -2.2568    0.5093 H   0  0  0  0  0  0  0  0  0  0  0  0
    2.2432   -0.9448    1.7001 H   0  0  0  0  0  0  0  0  0  0  0  0
    4.0704   -0.7301    0.2365 H   0  0  0  0  0  0  0  0  0  0  0  0
    3.0925   -0.6612   -1.2355 H   0  0  0  0  0  0  0  0  0  0  0  0
    4.5719    2.0786   -0.0096 H   0  0  0  0  0  0  0  0  0  0  0  0
    3.5065    2.3991   -1.2518 H   0  0  0  0  0  0  0  0  0  0  0  0
    0.5288    1.1389    0.9603 H   0  0  0  0  0  0  0  0  0  0  0  0
   -0.0378   -0.1234    2.1704 H   0  0  0  0  0  0  0  0  0  0  0  0
  1  2  1  0
  3  2  1  6
  3  4  1  0
  4  5  1  0
  3  6  1  0
  6  7  1  0
  7  8  1  0
  8  9  1  0
  9 10  1  0
 10 11  1  0
 11 12  1  0
  8 13  1  0
 13  3  1  0
  1 14  1  0
  1 15  1  0
  1 16  1  0
  4 17  1  0
  4 18  1  0
  5 19  1  0
  6 20  1  0
  6 21  1  0
  7 22  1  0
  7 23  1  0
  9 24  1  0
  9 25  1  0
 10 26  1  0
 10 27  1  0
 12 28  1  0
 12 29  1  0
 13 30  1  0
 13 31  1  0
M  END
$$$$

     RDKit          3D

 31 31  0  0  0  0  0  0  0  0999 V2000
   -1.7987    1.1946    1.9639 C   0  0  0  0  0  0  0  0  0  0  0  0
   -1.0782    1.2855    0.8082 O   0  0  0  0  0  0  0  0  0  0  0  0
   -1.2228    0.2036   -0.0664 C   0  0  1  0  0  0  0  0  0  0  0  0
   -2.6550   -0.3699   -0.0765 C   0  0  0  0  0  0  0  0  0  0  0  0
   -2.8467   -1.1950   -1.1555 O   0  0  0  0  0  0  0  0  0  0  0  0
   -0.8839    0.5803   -1.4740 C   0  0  0  0  0  0  0  0  0  0  0  0
    0.0666   -0.4990   -2.0066 C   0  0  0  0  0  0  0  0  0  0  0  0
    0.6114   -1.1240   -0.8941 N   0  0  0  0  0  0  0  0  0  0  0  0
    2.0153   -0.9168   -0.6045 C   0  0  0  0  0  0  0  0  0  0  0  0
    2.2756    0.5022   -0.2096 C   0  0  0  0  0  0  0  0  0  0  0  0
    3.6184    0.3641    0.3319 O   0  0  0  0  0  0  0  0  0  0  0  0
    3.3770    0.8349    1.6710 N   0  0  0  0  0  0  0  0  0  0  0  0
   -0.1911   -0.8221    0.2849 C   0  0  0  0  0  0  0  0  0  0  0  0
   -1.5444    1.8982    2.7485 H   0  0  0  0  0  0  0  0  0  0  0  0
   -2.2229    0.2722    2.2842 H   0  0  0  0  0  0  0  0  0  0  0  0
   -2.8095    1.7952    1.5857 H   0  0  0  0  0  0  0  0  0  0  0  0
   -2.6869   -1.1096    0.8448 H   0  0  0  0  0  0  0  0  0  0  0  0
   -3.4102    0.3454    0.0958 H   0  0  0  0  0  0  0  0  0  0  0  0
   -2.9931   -2.1520   -0.9762 H   0  0  0  0  0  0  0  0  0  0  0  0
   -1.8020    0.5263   -2.1165 H   0  0  0  0  0  0  0  0  0  0  0  0
   -0.3814    1.5249   -1.5937 H   0  0  0  0  0  0  0  0  0  0  0  0
   -0.5922   -1.2574   -2.5284 H   0  0  0  0  0  0  0  0  0  0  0  0
    0.7944   -0.0862   -2.7365 H   0  0  0  0  0  0  0  0  0  0  0  0
    2.6094   -1.2304   -1.4400 H   0  0  0  0  0  0  0  0  0  0  0  0
    2.2943   -1.5680    0.2687 H   0  0  0  0  0  0  0  0  0  0  0  0
    1.6571    1.1671    0.2205 H   0  0  0  0  0  0  0  0  0  0  0  0
    2.5880    1.0061   -1.2627 H   0  0  0  0  0  0  0  0  0  0  0  0
    3.2642   -0.2069    2.1140 H   0  0  0  0  0  0  0  0  0  0  0  0
    4.1535    1.2094    2.1515 H   0  0  0  0  0  0  0  0  0  0  0  0
    0.4547   -0.4363    1.1305 H   0  0  0  0  0  0  0  0  0  0  0  0
   -0.6609   -1.7366    0.6369 H   0  0  0  0  0  0  0  0  0  0  0  0
  1  2  1  0
  3  2  1  1
  3  4  1  0
  4  5  1  0
  3  6  1  0
  6  7  1  0
  7  8  1  0
  8  9  1  0
  9 10  1  0
 10 11  1  0
 11 12  1  0
  8 13  1  0
 13  3  1  0
  1 14  1  0
  1 15  1  0
  1 16  1  0
  4 17  1  0
  4 18  1  0
  5 19  1  0
  6 20  1  0
  6 21  1  0
  7 22  1  0
  7 23  1  0
  9 24  1  0
  9 25  1  0
 10 26  1  0
 10 27  1  0
 12 28  1  0
 12 29  1  0
 13 30  1  0
 13 31  1  0
M  END
$$$$

     RDKit          3D

 31 31  0  0  0  0  0  0  0  0999 V2000
   -3.4056    1.5332    1.0920 C   0  0  0  0  0  0  0  0  0  0  0  0
   -2.2604    0.8240    1.3979 O   0  0  0  0  0  0  0  0  0  0  0  0
   -1.6358    0.2544    0.3178 C   0  0  1  0  0  0  0  0  0  0  0  0
   -2.5334   -0.7221   -0.4133 C   0  0  0  0  0  0  0  0  0  0  0  0
   -2.8832   -1.7183    0.5007 O   0  0  0  0  0  0  0  0  0  0  0  0
   -1.0444    1.2763   -0.6331 C   0  0  0  0  0  0  0  0  0  0  0  0
    0.2363    0.5889   -1.0700 C   0  0  0  0  0  0  0  0  0  0  0  0
    0.7090   -0.0053    0.1031 N   0  0  0  0  0  0  0  0  0  0  0  0
    1.8458   -0.8230    0.0856 C   0  0  0  0  0  0  0  0  0  0  0  0
    3.1562   -0.1954   -0.1935 C   0  0  0  0  0  0  0  0  0  0  0  0
    4.1418   -1.2047   -0.1580 O   0  0  0  0  0  0  0  0  0  0  0  0
    5.3696   -0.7096   -0.4019 N   0  0  0  0  0  0  0  0  0  0  0  0
   -0.4272   -0.5096    0.8097 C   0  0  0  0  0  0  0  0  0  0  0  0
   -3.8072    1.9421    2.0427 H   0  0  0  0  0  0  0  0  0  0  0  0
   -4.1922    0.8979    0.6074 H   0  0  0  0  0  0  0  0  0  0  0  0
   -3.1886    2.3878    0.4015 H   0  0  0  0  0  0  0  0  0  0  0  0
   -1.9485   -1.2084   -1.2346 H   0  0  0  0  0  0  0  0  0  0  0  0
   -3.4055   -0.2516   -0.8735 H   0  0  0  0  0  0  0  0  0  0  0  0
   -3.8513   -1.8681    0.4477 H   0  0  0  0  0  0  0  0  0  0  0  0
   -1.7223    1.4490   -1.4997 H   0  0  0  0  0  0  0  0  0  0  0  0
   -0.8149    2.2057   -0.0856 H   0  0  0  0  0  0  0  0  0  0  0  0
   -0.0821   -0.2225   -1.7797 H   0  0  0  0  0  0  0  0  0  0  0  0
    0.8837    1.2557   -1.6151 H   0  0  0  0  0  0  0  0  0  0  0  0
    1.9251   -1.3370    1.0836 H   0  0  0  0  0  0  0  0  0  0  0  0
    1.6776   -1.6498   -0.6469 H   0  0  0  0  0  0  0  0  0  0  0  0
    3.2576    0.2681   -1.1869 H   0  0  0  0  0  0  0  0  0  0  0  0
    3.4349    0.5280    0.6115 H   0  0  0  0  0  0  0  0  0  0  0  0
    5.3746    0.2880   -0.6704 H   0  0  0  0  0  0  0  0  0  0  0  0
    5.9379   -1.3007   -1.0479 H   0  0  0  0  0  0  0  0  0  0  0  0
   -0.2493   -0.3666    1.8972 H   0  0  0  0  0  0  0  0  0  0  0  0
   -0.4983   -1.6064    0.5557 H   0  0  0  0  0  0  0  0  0  0  0  0
  1  2  1  0
  3  2  1  1
  3  4  1  0
  4  5  1  0
  3  6  1  0
  6  7  1  0
  7  8  1  0
  8  9  1  0
  9 10  1  0
 10 11  1  0
 11 12  1  0
  8 13  1  0
 13  3  1  0
  1 14  1  0
  1 15  1  0
  1 16  1  0
  4 17  1  0
  4 18  1  0
  5 19  1  0
  6 20  1  0
  6 21  1  0
  7 22  1  0
  7 23  1  0
  9 24  1  0
  9 25  1  0
 10 26  1  0
 10 27  1  0
 12 28  1  0
 12 29  1  0
 13 30  1  0
 13 31  1  0
M  END
$$$$

     RDKit          3D

 31 31  0  0  0  0  0  0  0  0999 V2000
   -2.1529    2.2715    0.2779 C   0  0  0  0  0  0  0  0  0  0  0  0
   -1.6153    1.1728    0.8543 O   0  0  0  0  0  0  0  0  0  0  0  0
   -1.6582   -0.0315    0.2026 C   0  0  1  0  0  0  0  0  0  0  0  0
   -3.0313   -0.6072    0.0818 C   0  0  0  0  0  0  0  0  0  0  0  0
   -2.9519   -2.0316   -0.0062 O   0  0  0  0  0  0  0  0  0  0  0  0
   -1.1197    0.2132   -1.2533 C   0  0  0  0  0  0  0  0  0  0  0  0
    0.3491    0.3873   -0.8889 C   0  0  0  0  0  0  0  0  0  0  0  0
    0.5303   -0.8646   -0.1655 N   0  0  0  0  0  0  0  0  0  0  0  0
    1.7257   -0.8602    0.5748 C   0  0  0  0  0  0  0  0  0  0  0  0
    2.9117   -0.8555   -0.4129 C   0  0  0  0  0  0  0  0  0  0  0  0
    4.0349   -0.8464    0.4395 O   0  0  0  0  0  0  0  0  0  0  0  0
    4.6805    0.3062    0.3420 N   0  0  0  0  0  0  0  0  0  0  0  0
   -0.6460   -0.9787    0.6935 C   0  0  0  0  0  0  0  0  0  0  0  0
   -3.1770    2.1678   -0.0782 H   0  0  0  0  0  0  0  0  0  0  0  0
   -1.4758    2.8538   -0.3691 H   0  0  0  0  0  0  0  0  0  0  0  0
   -2.2887    3.0039    1.1753 H   0  0  0  0  0  0  0  0  0  0  0  0
   -3.4732   -0.3423   -0.9405 H   0  0  0  0  0  0  0  0  0  0  0  0
   -3.6861   -0.3093    0.8754 H   0  0  0  0  0  0  0  0  0  0  0  0
   -3.2290   -2.3455    0.9379 H   0  0  0  0  0  0  0  0  0  0  0  0
   -1.5443    1.1316   -1.6983 H   0  0  0  0  0  0  0  0  0  0  0  0
   -1.2151   -0.7138   -1.7935 H   0  0  0  0  0  0  0  0  0  0  0  0
    0.9979    0.4719   -1.7771 H   0  0  0  0  0  0  0  0  0  0  0  0
    0.4299    1.2269   -0.2082 H   0  0  0  0  0  0  0  0  0  0  0  0
    1.8279    0.2245    1.0093 H   0  0  0  0  0  0  0  0  0  0  0  0
    1.8917   -1.5676    1.3591 H   0  0  0  0  0  0  0  0  0  0  0  0
    2.8856   -1.8784   -0.9043 H   0  0  0  0  0  0  0  0  0  0  0  0
    2.9379   -0.0726   -1.0990 H   0  0  0  0  0  0  0  0  0  0  0  0
    5.2794    0.5500   -0.3908 H   0  0  0  0  0  0  0  0  0  0  0  0
    4.0601    1.0929    0.7432 H   0  0  0  0  0  0  0  0  0  0  0  0
   -0.9949   -2.0280    0.6975 H   0  0  0  0  0  0  0  0  0  0  0  0
   -0.2833   -0.7412    1.7216 H   0  0  0  0  0  0  0  0  0  0  0  0
  1  2  1  0
  3  2  1  1
  3  4  1  0
  4  5  1  0
  3  6  1  0
  6  7  1  0
  7  8  1  0
  8  9  1  0
  9 10  1  0
 10 11  1  0
 11 12  1  0
  8 13  1  0
 13  3  1  0
  1 14  1  0
  1 15  1  0
  1 16  1  0
  4 17  1  0
  4 18  1  0
  5 19  1  0
  6 20  1  0
  6 21  1  0
  7 22  1  0
  7 23  1  0
  9 24  1  0
  9 25  1  0
 10 26  1  0
 10 27  1  0
 12 28  1  0
 12 29  1  0
 13 30  1  0
 13 31  1  0
M  END
$$$$

     RDKit          3D

 31 31  0  0  0  0  0  0  0  0999 V2000
   -2.5426    1.7281   -0.9241 C   0  0  0  0  0  0  0  0  0  0  0  0
   -2.1263    0.4810   -1.4407 O   0  0  0  0  0  0  0  0  0  0  0  0
   -1.6042   -0.2083   -0.3594 C   0  0  1  0  0  0  0  0  0  0  0  0
   -2.7962   -0.6200    0.5122 C   0  0  0  0  0  0  0  0  0  0  0  0
   -3.0730   -1.9864    0.3941 O   0  0  0  0  0  0  0  0  0  0  0  0
   -0.9337   -1.4819   -0.8147 C   0  0  0  0  0  0  0  0  0  0  0  0
    0.4708   -1.2672   -0.4971 C   0  0  0  0  0  0  0  0  0  0  0  0
    0.6382   -0.2473    0.4171 N   0  0  0  0  0  0  0  0  0  0  0  0
    1.7597    0.5985    0.1603 C   0  0  0  0  0  0  0  0  0  0  0  0
    2.9815   -0.3907    0.1813 C   0  0  0  0  0  0  0  0  0  0  0  0
    4.0816    0.4227    0.2709 O   0  0  0  0  0  0  0  0  0  0  0  0
    4.4518    0.9794   -0.8228 N   0  0  0  0  0  0  0  0  0  0  0  0
   -0.6087    0.5662    0.3889 C   0  0  0  0  0  0  0  0  0  0  0  0
   -2.7848    1.6672    0.1644 H   0  0  0  0  0  0  0  0  0  0  0  0
   -3.5734    1.8704   -1.4398 H   0  0  0  0  0  0  0  0  0  0  0  0
   -1.9571    2.5779   -1.2069 H   0  0  0  0  0  0  0  0  0  0  0  0
   -3.7514   -0.1120    0.1095 H   0  0  0  0  0  0  0  0  0  0  0  0
   -2.6456   -0.3836    1.5577 H   0  0  0  0  0  0  0  0  0  0  0  0
   -3.4824   -2.2619   -0.4341 H   0  0  0  0  0  0  0  0  0  0  0  0
   -1.3025   -2.3846   -0.2864 H   0  0  0  0  0  0  0  0  0  0  0  0
   -1.0997   -1.6232   -1.9233 H   0  0  0  0  0  0  0  0  0  0  0  0
    1.0934   -1.1408   -1.3859 H   0  0  0  0  0  0  0  0  0  0  0  0
    0.9448   -2.1732    0.0545 H   0  0  0  0  0  0  0  0  0  0  0  0
    1.6667    0.9133   -0.9679 H   0  0  0  0  0  0  0  0  0  0  0  0
    1.9646    1.4624    0.6934 H   0  0  0  0  0  0  0  0  0  0  0  0
    2.7812   -1.1266    0.9153 H   0  0  0  0  0  0  0  0  0  0  0  0
    3.0473   -0.9280   -0.8251 H   0  0  0  0  0  0  0  0  0  0  0  0
    4.5589    2.0509   -0.5254 H   0  0  0  0  0  0  0  0  0  0  0  0
    5.2408    0.6790   -1.2855 H   0  0  0  0  0  0  0  0  0  0  0  0
   -0.9732    0.7801    1.4190 H   0  0  0  0  0  0  0  0  0  0  0  0
   -0.4264    1.5584   -0.0715 H   0  0  0  0  0  0  0  0  0  0  0  0
  1  2  1  0
  3  2  1  6
  3  4  1  0
  4  5  1  0
  3  6  1  0
  6  7  1  0
  7  8  1  0
  8  9  1  0
  9 10  1  0
 10 11  1  0
 11 12  1  0
  8 13  1  0
 13  3  1  0
  1 14  1  0
  1 15  1  0
  1 16  1  0
  4 17  1  0
  4 18  1  0
  5 19  1  0
  6 20  1  0
  6 21  1  0
  7 22  1  0
  7 23  1  0
  9 24  1  0
  9 25  1  0
 10 26  1  0
 10 27  1  0
 12 28  1  0
 12 29  1  0
 13 30  1  0
 13 31  1  0
M  END
$$$$

     RDKit          3D

 31 31  0  0  0  0  0  0  0  0999 V2000
   -3.6187   -0.7441    0.8699 C   0  0  0  0  0  0  0  0  0  0  0  0
   -2.5377   -1.1667    0.1603 O   0  0  0  0  0  0  0  0  0  0  0  0
   -1.5493   -0.2731   -0.1185 C   0  0  1  0  0  0  0  0  0  0  0  0
   -2.0061    0.9633   -0.8725 C   0  0  0  0  0  0  0  0  0  0  0  0
   -2.9148    1.7285   -0.1819 O   0  0  0  0  0  0  0  0  0  0  0  0
   -0.8214    0.0725    1.1670 C   0  0  0  0  0  0  0  0  0  0  0  0
    0.5075   -0.6464    1.0072 C   0  0  0  0  0  0  0  0  0  0  0  0
    0.7331   -0.7921   -0.3870 N   0  0  0  0  0  0  0  0  0  0  0  0
    1.5591    0.1663   -1.0284 C   0  0  0  0  0  0  0  0  0  0  0  0
    3.0225    0.0765   -0.6800 C   0  0  0  0  0  0  0  0  0  0  0  0
    3.3265    0.2343    0.6472 O   0  0  0  0  0  0  0  0  0  0  0  0
    4.6782    0.1176    0.7518 N   0  0  0  0  0  0  0  0  0  0  0  0
   -0.5304   -0.9996   -0.9955 C   0  0  0  0  0  0  0  0  0  0  0  0
   -4.2769   -1.6662    1.0349 H   0  0  0  0  0  0  0  0  0  0  0  0
   -3.4240   -0.2725    1.8317 H   0  0  0  0  0  0  0  0  0  0  0  0
   -4.2589   -0.0364    0.2469 H   0  0  0  0  0  0  0  0  0  0  0  0
   -2.5386    0.6106   -1.8058 H   0  0  0  0  0  0  0  0  0  0  0  0
   -1.1686    1.5666   -1.2495 H   0  0  0  0  0  0  0  0  0  0  0  0
   -2.4439    2.4420    0.3277 H   0  0  0  0  0  0  0  0  0  0  0  0
   -0.6314    1.1415    1.2873 H   0  0  0  0  0  0  0  0  0  0  0  0
   -1.3324   -0.3073    2.0670 H   0  0  0  0  0  0  0  0  0  0  0  0
    1.2955   -0.1765    1.5896 H   0  0  0  0  0  0  0  0  0  0  0  0
    0.3455   -1.6823    1.4287 H   0  0  0  0  0  0  0  0  0  0  0  0
    1.1848    1.2279   -0.8798 H   0  0  0  0  0  0  0  0  0  0  0  0
    1.4818    0.0222   -2.1296 H   0  0  0  0  0  0  0  0  0  0  0  0
    3.4225   -0.8815   -1.0763 H   0  0  0  0  0  0  0  0  0  0  0  0
    3.5620    0.9062   -1.2202 H   0  0  0  0  0  0  0  0  0  0  0  0
    5.1234    0.5584   -0.0731 H   0  0  0  0  0  0  0  0  0  0  0  0
    5.0604    0.5038    1.6175 H   0  0  0  0  0  0  0  0  0  0  0  0
   -0.7267   -2.0856   -1.0077 H   0  0  0  0  0  0  0  0  0  0  0  0
   -0.5228   -0.6079   -2.0196 H   0  0  0  0  0  0  0  0  0  0  0  0
  1  2  1  0
  3  2  1  1
  3  4  1  0
  4  5  1  0
  3  6  1  0
  6  7  1  0
  7  8  1  0
  8  9  1  0
  9 10  1  0
 10 11  1  0
 11 12  1  0
  8 13  1  0
 13  3  1  0
  1 14  1  0
  1 15  1  0
  1 16  1  0
  4 17  1  0
  4 18  1  0
  5 19  1  0
  6 20  1  0
  6 21  1  0
  7 22  1  0
  7 23  1  0
  9 24  1  0
  9 25  1  0
 10 26  1  0
 10 27  1  0
 12 28  1  0
 12 29  1  0
 13 30  1  0
 13 31  1  0
M  END
$$$$

     RDKit          3D

 31 31  0  0  0  0  0  0  0  0999 V2000
   -2.6037    1.5579    0.9756 C   0  0  0  0  0  0  0  0  0  0  0  0
   -2.8283    0.2696    0.5505 O   0  0  0  0  0  0  0  0  0  0  0  0
   -1.7461   -0.4199    0.1161 C   0  0  1  0  0  0  0  0  0  0  0  0
   -2.2072   -1.7907   -0.3606 C   0  0  0  0  0  0  0  0  0  0  0  0
   -2.8857   -1.5901   -1.5644 O   0  0  0  0  0  0  0  0  0  0  0  0
   -1.1266    0.2095   -1.1416 C   0  0  0  0  0  0  0  0  0  0  0  0
    0.1555   -0.6225   -1.2265 C   0  0  0  0  0  0  0  0  0  0  0  0
    0.5827   -0.6927    0.1823 N   0  0  0  0  0  0  0  0  0  0  0  0
    1.5831    0.2915    0.2843 C   0  0  0  0  0  0  0  0  0  0  0  0
    2.9822   -0.3749    0.1563 C   0  0  0  0  0  0  0  0  0  0  0  0
    3.7713    0.5626   -0.4557 O   0  0  0  0  0  0  0  0  0  0  0  0
    4.8053    0.9865    0.2773 N   0  0  0  0  0  0  0  0  0  0  0  0
   -0.5657   -0.5211    1.0021 C   0  0  0  0  0  0  0  0  0  0  0  0
   -3.6076    1.9771    1.2522 H   0  0  0  0  0  0  0  0  0  0  0  0
   -2.2500    2.2165    0.1283 H   0  0  0  0  0  0  0  0  0  0  0  0
   -1.9885    1.6676    1.8755 H   0  0  0  0  0  0  0  0  0  0  0  0
   -1.4220   -2.5381   -0.3797 H   0  0  0  0  0  0  0  0  0  0  0  0
   -3.0214   -2.0897    0.3543 H   0  0  0  0  0  0  0  0  0  0  0  0
   -3.4718   -0.8075   -1.4398 H   0  0  0  0  0  0  0  0  0  0  0  0
   -0.8380    1.2475   -1.0141 H   0  0  0  0  0  0  0  0  0  0  0  0
   -1.6884   -0.0049   -2.0556 H   0  0  0  0  0  0  0  0  0  0  0  0
    0.8908   -0.1365   -1.8818 H   0  0  0  0  0  0  0  0  0  0  0  0
   -0.0518   -1.6319   -1.5707 H   0  0  0  0  0  0  0  0  0  0  0  0
    1.5542    0.8194    1.2901 H   0  0  0  0  0  0  0  0  0  0  0  0
    1.5662    1.0994   -0.4556 H   0  0  0  0  0  0  0  0  0  0  0  0
    3.3549   -0.5627    1.1859 H   0  0  0  0  0  0  0  0  0  0  0  0
    2.9023   -1.3132   -0.3533 H   0  0  0  0  0  0  0  0  0  0  0  0
    4.2609    1.4029    1.1513 H   0  0  0  0  0  0  0  0  0  0  0  0
    5.0274    1.9441   -0.2031 H   0  0  0  0  0  0  0  0  0  0  0  0
   -0.6748   -1.4751    1.5980 H   0  0  0  0  0  0  0  0  0  0  0  0
   -0.4591    0.3193    1.7223 H   0  0  0  0  0  0  0  0  0  0  0  0
  1  2  1  0
  3  2  1  1
  3  4  1  0
  4  5  1  0
  3  6  1  0
  6  7  1  0
  7  8  1  0
  8  9  1  0
  9 10  1  0
 10 11  1  0
 11 12  1  0
  8 13  1  0
 13  3  1  0
  1 14  1  0
  1 15  1  0
  1 16  1  0
  4 17  1  0
  4 18  1  0
  5 19  1  0
  6 20  1  0
  6 21  1  0
  7 22  1  0
  7 23  1  0
  9 24  1  0
  9 25  1  0
 10 26  1  0
 10 27  1  0
 12 28  1  0
 12 29  1  0
 13 30  1  0
 13 31  1  0
M  END
$$$$

     RDKit          3D

 31 31  0  0  0  0  0  0  0  0999 V2000
   -2.1317   -2.2571   -0.4430 C   0  0  0  0  0  0  0  0  0  0  0  0
   -1.4902   -1.4678    0.4711 O   0  0  0  0  0  0  0  0  0  0  0  0
   -1.5106   -0.1200    0.2383 C   0  0  1  0  0  0  0  0  0  0  0  0
   -2.9049    0.4586    0.1837 C   0  0  0  0  0  0  0  0  0  0  0  0
   -2.8583    1.8261   -0.0557 O   0  0  0  0  0  0  0  0  0  0  0  0
   -0.7661    0.5349    1.4164 C   0  0  0  0  0  0  0  0  0  0  0  0
    0.3377    1.3031    0.6706 C   0  0  0  0  0  0  0  0  0  0  0  0
    0.6026    0.3871   -0.3610 N   0  0  0  0  0  0  0  0  0  0  0  0
    1.6995    0.5365   -1.2029 C   0  0  0  0  0  0  0  0  0  0  0  0
    2.9951    0.3232   -0.4728 C   0  0  0  0  0  0  0  0  0  0  0  0
    3.0412   -0.9441    0.0609 O   0  0  0  0  0  0  0  0  0  0  0  0
    4.1592   -1.2194    0.7286 N   0  0  0  0  0  0  0  0  0  0  0  0
   -0.6798    0.2186   -0.9818 C   0  0  0  0  0  0  0  0  0  0  0  0
   -1.7580   -2.2064   -1.4761 H   0  0  0  0  0  0  0  0  0  0  0  0
   -3.2365   -2.1383   -0.4347 H   0  0  0  0  0  0  0  0  0  0  0  0
   -1.9573   -3.3249   -0.1191 H   0  0  0  0  0  0  0  0  0  0  0  0
   -3.3406    0.3316    1.1946 H   0  0  0  0  0  0  0  0  0  0  0  0
   -3.5097   -0.0410   -0.5886 H   0  0  0  0  0  0  0  0  0  0  0  0
   -2.9589    2.3623    0.7678 H   0  0  0  0  0  0  0  0  0  0  0  0
   -1.4096    1.2055    1.9858 H   0  0  0  0  0  0  0  0  0  0  0  0
   -0.2287   -0.2170    2.0237 H   0  0  0  0  0  0  0  0  0  0  0  0
   -0.1707    2.2061    0.2566 H   0  0  0  0  0  0  0  0  0  0  0  0
    1.1484    1.6036    1.3093 H   0  0  0  0  0  0  0  0  0  0  0  0
    1.6439   -0.2452   -1.9958 H   0  0  0  0  0  0  0  0  0  0  0  0
    1.7090    1.5076   -1.7109 H   0  0  0  0  0  0  0  0  0  0  0  0
    3.8583    0.4092   -1.1833 H   0  0  0  0  0  0  0  0  0  0  0  0
    3.1202    1.1361    0.2519 H   0  0  0  0  0  0  0  0  0  0  0  0
    4.1425   -2.2256    0.9993 H   0  0  0  0  0  0  0  0  0  0  0  0
    4.1294   -0.6755    1.6302 H   0  0  0  0  0  0  0  0  0  0  0  0
   -0.9705    1.2362   -1.3788 H   0  0  0  0  0  0  0  0  0  0  0  0
   -0.7046   -0.5040   -1.7844 H   0  0  0  0  0  0  0  0  0  0  0  0
  1  2  1  0
  3  2  1  1
  3  4  1  0
  4  5  1  0
  3  6  1  0
  6  7  1  0
  7  8  1  0
  8  9  1  0
  9 10  1  0
 10 11  1  0
 11 12  1  0
  8 13  1  0
 13  3  1  0
  1 14  1  0
  1 15  1  0
  1 16  1  0
  4 17  1  0
  4 18  1  0
  5 19  1  0
  6 20  1  0
  6 21  1  0
  7 22  1  0
  7 23  1  0
  9 24  1  0
  9 25  1  0
 10 26  1  0
 10 27  1  0
 12 28  1  0
 12 29  1  0
 13 30  1  0
 13 31  1  0
M  END
$$$$
