
     RDKit          3D

 26 25  0  0  0  0  0  0  0  0999 V2000
   -2.6973   -0.6327   -0.1207 C   0  0  0  0  0  0  0  0  0  0  0  0
   -1.4335    0.2244   -0.2286 C   0  0  1  0  0  0  0  0  0  0  0  0
   -1.6449    1.4559    0.5764 C   0  0  0  0  0  0  0  0  0  0  0  0
   -2.5461    2.4709    0.1705 N   0  0  0  0  0  0  0  0  0  0  0  0
   -1.0166    1.6112    1.6409 O   0  0  0  0  0  0  0  0  0  0  0  0
   -0.2810   -0.5604    0.2463 N   0  0  0  0  0  0  0  0  0  0  0  0
   -0.2482   -1.7231   -0.6559 C   0  0  0  0  0  0  0  0  0  0  0  0
    0.9080    0.2417   -0.0119 C   0  0  0  0  0  0  0  0  0  0  0  0
    2.1579   -0.4574    0.4364 C   0  0  0  0  0  0  0  0  0  0  0  0
    3.2711    0.3395    0.1745 O   0  0  0  0  0  0  0  0  0  0  0  0
    4.4153   -0.2418    0.5586 N   0  0  0  0  0  0  0  0  0  0  0  0
   -2.5663   -1.5114    0.5249 H   0  0  0  0  0  0  0  0  0  0  0  0
   -3.0127   -0.9488   -1.1168 H   0  0  0  0  0  0  0  0  0  0  0  0
   -3.5066   -0.0042    0.3230 H   0  0  0  0  0  0  0  0  0  0  0  0
   -1.2403    0.4784   -1.2769 H   0  0  0  0  0  0  0  0  0  0  0  0
   -2.2267    3.3597   -0.2747 H   0  0  0  0  0  0  0  0  0  0  0  0
   -3.5803    2.3509    0.3106 H   0  0  0  0  0  0  0  0  0  0  0  0
    0.3146   -1.4325   -1.5658 H   0  0  0  0  0  0  0  0  0  0  0  0
    0.1755   -2.6084   -0.1572 H   0  0  0  0  0  0  0  0  0  0  0  0
   -1.2730   -1.9729   -0.9707 H   0  0  0  0  0  0  0  0  0  0  0  0
    0.9762    0.3562   -1.1161 H   0  0  0  0  0  0  0  0  0  0  0  0
    0.8177    1.2060    0.4556 H   0  0  0  0  0  0  0  0  0  0  0  0
    2.1021   -0.7147    1.5284 H   0  0  0  0  0  0  0  0  0  0  0  0
    2.3199   -1.4209   -0.0906 H   0  0  0  0  0  0  0  0  0  0  0  0
    4.6364    0.0210    1.5512 H   0  0  0  0  0  0  0  0  0  0  0  0
    5.1787    0.1132   -0.0889 H   0  0  0  0  0  0  0  0  0  0  0  0
  1  2  1  0
  2  3  1  0
  3  4  1  0
  3  5  2  0
  2  6  1  0
  6  7  1  0
  6  8  1  0
  8  9  1  0
  9 10  1  0
 10 11  1  0
  1 12  1  0
  1 13  1  0
  1 14  1  0
  2 15  1  6
  4 16  1  0
  4 17  1  0
  7 18  1  0
  7 19  1  0
  7 20  1  0
  8 21  1  0
  8 22  1  0
  9 23  1  0
  9 24  1  0
 11 25  1  0
 11 26  1  0
M  END
$$$$

     RDKit          3D

 26 25  0  0  0  0  0  0  0  0999 V2000
   -2.5105   -0.5006    0.7433 C   0  0  0  0  0  0  0  0  0  0  0  0
   -1.2027   -0.0635    0.0592 C   0  0  1  0  0  0  0  0  0  0  0  0
   -1.0352    1.3243    0.5355 C   0  0  0  0  0  0  0  0  0  0  0  0
   -1.8149    2.3455   -0.0211 N   0  0  0  0  0  0  0  0  0  0  0  0
   -0.2120    1.5936    1.4221 O   0  0  0  0  0  0  0  0  0  0  0  0
   -0.1645   -0.9674    0.5061 N   0  0  0  0  0  0  0  0  0  0  0  0
   -0.6824   -2.3009    0.0560 C   0  0  0  0  0  0  0  0  0  0  0  0
    1.0688   -0.8619   -0.2101 C   0  0  0  0  0  0  0  0  0  0  0  0
    1.8882    0.3379   -0.1045 C   0  0  0  0  0  0  0  0  0  0  0  0
    3.0402    0.1196   -0.9230 O   0  0  0  0  0  0  0  0  0  0  0  0
    3.8504    1.1830   -0.8783 N   0  0  0  0  0  0  0  0  0  0  0  0
   -3.2264    0.3272    0.5481 H   0  0  0  0  0  0  0  0  0  0  0  0
   -2.9289   -1.4058    0.2641 H   0  0  0  0  0  0  0  0  0  0  0  0
   -2.3959   -0.5700    1.8294 H   0  0  0  0  0  0  0  0  0  0  0  0
   -1.3245   -0.1807   -1.0203 H   0  0  0  0  0  0  0  0  0  0  0  0
   -2.6805    2.6660    0.4412 H   0  0  0  0  0  0  0  0  0  0  0  0
   -1.5189    2.7845   -0.9091 H   0  0  0  0  0  0  0  0  0  0  0  0
   -1.2984   -2.2094   -0.8335 H   0  0  0  0  0  0  0  0  0  0  0  0
   -1.2378   -2.7760    0.9023 H   0  0  0  0  0  0  0  0  0  0  0  0
    0.1577   -2.9868   -0.1731 H   0  0  0  0  0  0  0  0  0  0  0  0
    0.8681   -1.0605   -1.3007 H   0  0  0  0  0  0  0  0  0  0  0  0
    1.6893   -1.7539    0.0958 H   0  0  0  0  0  0  0  0  0  0  0  0
    2.2846    0.6330    0.8584 H   0  0  0  0  0  0  0  0  0  0  0  0
    1.3716    1.1627   -0.6791 H   0  0  0  0  0  0  0  0  0  0  0  0
    4.6579    1.0654   -0.2433 H   0  0  0  0  0  0  0  0  0  0  0  0
    3.3568    2.0943   -0.7545 H   0  0  0  0  0  0  0  0  0  0  0  0
  1  2  1  0
  2  3  1  0
  3  4  1  0
  3  5  2  0
  2  6  1  0
  6  7  1  0
  6  8  1  0
  8  9  1  0
  9 10  1  0
 10 11  1  0
  1 12  1  0
  1 13  1  0
  1 14  1  0
  2 15  1  6
  4 16  1  0
  4 17  1  0
  7 18  1  0
  7 19  1  0
  7 20  1  0
  8 21  1  0
  8 22  1  0
  9 23  1  0
  9 24  1  0
 11 25  1  0
 11 26  1  0
M  END
$$$$

     RDKit          3D

 26 25  0  0  0  0  0  0  0  0999 V2000
   -2.2301    0.9453   -0.7350 C   0  0  0  0  0  0  0  0  0  0  0  0
   -1.3056    0.4582    0.3385 C   0  0  1  0  0  0  0  0  0  0  0  0
   -2.0377   -0.7833    0.8746 C   0  0  0  0  0  0  0  0  0  0  0  0
   -3.4238   -0.4020    1.1263 N   0  0  0  0  0  0  0  0  0  0  0  0
   -1.6500   -1.8363    1.0138 O   0  0  0  0  0  0  0  0  0  0  0  0
   -0.0461   -0.0817   -0.2381 N   0  0  0  0  0  0  0  0  0  0  0  0
    0.5037    0.9355   -1.1268 C   0  0  0  0  0  0  0  0  0  0  0  0
    0.8292   -0.3347    0.8316 C   0  0  0  0  0  0  0  0  0  0  0  0
    2.0483   -1.1847    0.6078 C   0  0  0  0  0  0  0  0  0  0  0  0
    2.9164   -0.5755   -0.2665 O   0  0  0  0  0  0  0  0  0  0  0  0
    4.0635   -0.3105    0.4230 N   0  0  0  0  0  0  0  0  0  0  0  0
   -3.2264    1.0988   -0.2175 H   0  0  0  0  0  0  0  0  0  0  0  0
   -2.4056    0.1589   -1.4822 H   0  0  0  0  0  0  0  0  0  0  0  0
   -1.9341    1.9299   -1.1354 H   0  0  0  0  0  0  0  0  0  0  0  0
   -1.1464    1.1533    1.1289 H   0  0  0  0  0  0  0  0  0  0  0  0
   -3.6238    0.2646    1.8762 H   0  0  0  0  0  0  0  0  0  0  0  0
   -4.1651   -0.7866    0.5286 H   0  0  0  0  0  0  0  0  0  0  0  0
   -0.2238    1.1373   -1.9622 H   0  0  0  0  0  0  0  0  0  0  0  0
    1.3800    0.4982   -1.6315 H   0  0  0  0  0  0  0  0  0  0  0  0
    0.8017    1.8355   -0.5908 H   0  0  0  0  0  0  0  0  0  0  0  0
    1.4094    0.7275    0.9709 H   0  0  0  0  0  0  0  0  0  0  0  0
    0.3815   -0.5068    1.8071 H   0  0  0  0  0  0  0  0  0  0  0  0
    2.3967   -1.7517    1.4312 H   0  0  0  0  0  0  0  0  0  0  0  0
    1.6105   -2.0801   -0.0939 H   0  0  0  0  0  0  0  0  0  0  0  0
    4.4748    0.5019   -0.0161 H   0  0  0  0  0  0  0  0  0  0  0  0
    4.6027   -1.0108    0.8132 H   0  0  0  0  0  0  0  0  0  0  0  0
  1  2  1  0
  2  3  1  0
  3  4  1  0
  3  5  2  0
  2  6  1  0
  6  7  1  0
  6  8  1  0
  8  9  1  0
  9 10  1  0
 10 11  1  0
  1 12  1  0
  1 13  1  0
  1 14  1  0
  2 15  1  1
  4 16  1  0
  4 17  1  0
  7 18  1  0
  7 19  1  0
  7 20  1  0
  8 21  1  0
  8 22  1  0
  9 23  1  0
  9 24  1  0
 11 25  1  0
 11 26  1  0
M  END
$$$$

     RDKit          3D

 26 25  0  0  0  0  0  0  0  0999 V2000
   -1.9396    0.1011   -1.4458 C   0  0  0  0  0  0  0  0  0  0  0  0
   -0.9293    0.3715   -0.3396 C   0  0  1  0  0  0  0  0  0  0  0  0
   -1.6918    0.6408    0.8851 C   0  0  0  0  0  0  0  0  0  0  0  0
   -2.5852    1.7291    0.9214 N   0  0  0  0  0  0  0  0  0  0  0  0
   -1.5565   -0.0803    1.8860 O   0  0  0  0  0  0  0  0  0  0  0  0
   -0.0816   -0.7463   -0.2452 N   0  0  0  0  0  0  0  0  0  0  0  0
   -0.7104   -1.9815    0.1018 C   0  0  0  0  0  0  0  0  0  0  0  0
    1.1602   -0.6230    0.4028 C   0  0  0  0  0  0  0  0  0  0  0  0
    2.1979    0.2177   -0.2399 C   0  0  0  0  0  0  0  0  0  0  0  0
    2.5362   -0.2618   -1.5262 O   0  0  0  0  0  0  0  0  0  0  0  0
    3.4792    0.5210   -2.0893 N   0  0  0  0  0  0  0  0  0  0  0  0
   -1.4635   -0.3871   -2.3204 H   0  0  0  0  0  0  0  0  0  0  0  0
   -2.7870   -0.4716   -1.0262 H   0  0  0  0  0  0  0  0  0  0  0  0
   -2.3466    1.0688   -1.7955 H   0  0  0  0  0  0  0  0  0  0  0  0
   -0.4357    1.3199   -0.6377 H   0  0  0  0  0  0  0  0  0  0  0  0
   -3.5995    1.6554    0.6245 H   0  0  0  0  0  0  0  0  0  0  0  0
   -2.2389    2.6680    1.2577 H   0  0  0  0  0  0  0  0  0  0  0  0
   -0.5910   -2.7640   -0.6914 H   0  0  0  0  0  0  0  0  0  0  0  0
   -1.7659   -1.8140    0.3572 H   0  0  0  0  0  0  0  0  0  0  0  0
   -0.1991   -2.3949    0.9944 H   0  0  0  0  0  0  0  0  0  0  0  0
    0.9728   -0.2041    1.4246 H   0  0  0  0  0  0  0  0  0  0  0  0
    1.5777   -1.6387    0.5746 H   0  0  0  0  0  0  0  0  0  0  0  0
    1.9412    1.2736   -0.3616 H   0  0  0  0  0  0  0  0  0  0  0  0
    3.1518    0.1894    0.3348 H   0  0  0  0  0  0  0  0  0  0  0  0
    3.4870    1.4938   -1.6970 H   0  0  0  0  0  0  0  0  0  0  0  0
    4.4176    0.1172   -2.1310 H   0  0  0  0  0  0  0  0  0  0  0  0
  1  2  1  0
  2  3  1  0
  3  4  1  0
  3  5  2  0
  2  6  1  0
  6  7  1  0
  6  8  1  0
  8  9  1  0
  9 10  1  0
 10 11  1  0
  1 12  1  0
  1 13  1  0
  1 14  1  0
  2 15  1  6
  4 16  1  0
  4 17  1  0
  7 18  1  0
  7 19  1  0
  7 20  1  0
  8 21  1  0
  8 22  1  0
  9 23  1  0
  9 24  1  0
 11 25  1  0
 11 26  1  0
M  END
$$$$

     RDKit          3D

 26 25  0  0  0  0  0  0  0  0999 V2000
   -1.9989   -1.2355   -0.5392 C   0  0  0  0  0  0  0  0  0  0  0  0
   -1.3153    0.1183   -0.3330 C   0  0  1  0  0  0  0  0  0  0  0  0
   -2.0758    0.9757    0.5486 C   0  0  0  0  0  0  0  0  0  0  0  0
   -3.4406    1.2428    0.2772 N   0  0  0  0  0  0  0  0  0  0  0  0
   -1.5705    1.5050    1.5648 O   0  0  0  0  0  0  0  0  0  0  0  0
    0.0504   -0.1408    0.0017 N   0  0  0  0  0  0  0  0  0  0  0  0
    0.1610   -0.8762    1.2549 C   0  0  0  0  0  0  0  0  0  0  0  0
    0.9219    0.9768    0.0572 C   0  0  0  0  0  0  0  0  0  0  0  0
    2.3562    0.4393    0.2172 C   0  0  0  0  0  0  0  0  0  0  0  0
    2.6213   -0.3727   -0.9117 O   0  0  0  0  0  0  0  0  0  0  0  0
    3.8611   -0.8743   -0.8247 N   0  0  0  0  0  0  0  0  0  0  0  0
   -2.6026   -1.4341    0.3513 H   0  0  0  0  0  0  0  0  0  0  0  0
   -2.6846   -1.1985   -1.4165 H   0  0  0  0  0  0  0  0  0  0  0  0
   -1.2387   -1.9961   -0.7648 H   0  0  0  0  0  0  0  0  0  0  0  0
   -1.3251    0.5911   -1.3585 H   0  0  0  0  0  0  0  0  0  0  0  0
   -4.0332    0.5237   -0.2023 H   0  0  0  0  0  0  0  0  0  0  0  0
   -3.8588    2.1557    0.5488 H   0  0  0  0  0  0  0  0  0  0  0  0
    0.7370   -0.3346    2.0242 H   0  0  0  0  0  0  0  0  0  0  0  0
    0.6284   -1.8514    1.0187 H   0  0  0  0  0  0  0  0  0  0  0  0
   -0.8454   -1.0451    1.7059 H   0  0  0  0  0  0  0  0  0  0  0  0
    0.6512    1.6186    0.9018 H   0  0  0  0  0  0  0  0  0  0  0  0
    0.9392    1.5718   -0.8826 H   0  0  0  0  0  0  0  0  0  0  0  0
    2.4929   -0.1872    1.0898 H   0  0  0  0  0  0  0  0  0  0  0  0
    3.0234    1.2948    0.1629 H   0  0  0  0  0  0  0  0  0  0  0  0
    4.5236   -0.0984   -1.0003 H   0  0  0  0  0  0  0  0  0  0  0  0
    4.0219   -1.3687    0.0758 H   0  0  0  0  0  0  0  0  0  0  0  0
  1  2  1  0
  2  3  1  0
  3  4  1  0
  3  5  2  0
  2  6  1  0
  6  7  1  0
  6  8  1  0
  8  9  1  0
  9 10  1  0
 10 11  1  0
  1 12  1  0
  1 13  1  0
  1 14  1  0
  2 15  1  6
  4 16  1  0
  4 17  1  0
  7 18  1  0
  7 19  1  0
  7 20  1  0
  8 21  1  0
  8 22  1  0
  9 23  1  0
  9 24  1  0
 11 25  1  0
 11 26  1  0
M  END
$$$$

     RDKit          3D

 26 25  0  0  0  0  0  0  0  0999 V2000
   -1.7109   -1.3866    0.2806 C   0  0  0  0  0  0  0  0  0  0  0  0
   -1.5005   -0.1285   -0.4930 C   0  0  1  0  0  0  0  0  0  0  0  0
   -2.3165    0.9557    0.1228 C   0  0  0  0  0  0  0  0  0  0  0  0
   -3.4598    0.7585    0.8936 N   0  0  0  0  0  0  0  0  0  0  0  0
   -1.9435    2.1723   -0.0764 O   0  0  0  0  0  0  0  0  0  0  0  0
   -0.1195    0.3429   -0.5033 N   0  0  0  0  0  0  0  0  0  0  0  0
    0.2268    0.7168   -1.8445 C   0  0  0  0  0  0  0  0  0  0  0  0
    0.7684   -0.6229    0.0641 C   0  0  0  0  0  0  0  0  0  0  0  0
    2.1310   -0.0423    0.2609 C   0  0  0  0  0  0  0  0  0  0  0  0
    2.9924   -1.0102    0.8438 O   0  0  0  0  0  0  0  0  0  0  0  0
    4.1657   -0.3736    1.0749 N   0  0  0  0  0  0  0  0  0  0  0  0
   -1.5075   -1.2362    1.3726 H   0  0  0  0  0  0  0  0  0  0  0  0
   -2.8239   -1.5874    0.2435 H   0  0  0  0  0  0  0  0  0  0  0  0
   -1.2149   -2.2670   -0.1213 H   0  0  0  0  0  0  0  0  0  0  0  0
   -1.8867   -0.2847   -1.5159 H   0  0  0  0  0  0  0  0  0  0  0  0
   -3.3744    0.5633    1.9139 H   0  0  0  0  0  0  0  0  0  0  0  0
   -4.3986    0.8176    0.4721 H   0  0  0  0  0  0  0  0  0  0  0  0
    0.5992   -0.0903   -2.4805 H   0  0  0  0  0  0  0  0  0  0  0  0
   -0.6932    1.1454   -2.3629 H   0  0  0  0  0  0  0  0  0  0  0  0
    0.9486    1.5660   -1.7515 H   0  0  0  0  0  0  0  0  0  0  0  0
    0.4173   -1.0804    1.0018 H   0  0  0  0  0  0  0  0  0  0  0  0
    0.8816   -1.4639   -0.6659 H   0  0  0  0  0  0  0  0  0  0  0  0
    2.6001    0.2468   -0.7227 H   0  0  0  0  0  0  0  0  0  0  0  0
    2.1655    0.8584    0.9127 H   0  0  0  0  0  0  0  0  0  0  0  0
    4.9645   -1.0222    1.1723 H   0  0  0  0  0  0  0  0  0  0  0  0
    4.0886    0.2693    1.9081 H   0  0  0  0  0  0  0  0  0  0  0  0
  1  2  1  0
  2  3  1  0
  3  4  1  0
  3  5  2  0
  2  6  1  0
  6  7  1  0
  6  8  1  0
  8  9  1  0
  9 10  1  0
 10 11  1  0
  1 12  1  0
  1 13  1  0
  1 14  1  0
  2 15  1  6
  4 16  1  0
  4 17  1  0
  7 18  1  0
  7 19  1  0
  7 20  1  0
  8 21  1  0
  8 22  1  0
  9 23  1  0
  9 24  1  0
 11 25  1  0
 11 26  1  0
M  END
$$$$

     RDKit          3D

 26 25  0  0  0  0  0  0  0  0999 V2000
   -2.2790   -0.9424    1.0071 C   0  0  0  0  0  0  0  0  0  0  0  0
   -1.5396   -0.0279    0.0680 C   0  0  1  0  0  0  0  0  0  0  0  0
   -1.4839    1.3768    0.4494 C   0  0  0  0  0  0  0  0  0  0  0  0
   -2.5789    2.2833    0.2982 N   0  0  0  0  0  0  0  0  0  0  0  0
   -0.4602    1.9699    0.8749 O   0  0  0  0  0  0  0  0  0  0  0  0
   -0.2938   -0.5413   -0.3872 N   0  0  0  0  0  0  0  0  0  0  0  0
   -0.1630   -0.6187   -1.7792 C   0  0  0  0  0  0  0  0  0  0  0  0
    0.7699   -0.6429    0.4585 C   0  0  0  0  0  0  0  0  0  0  0  0
    2.1097   -0.6159   -0.3368 C   0  0  0  0  0  0  0  0  0  0  0  0
    3.0912   -0.6238    0.6775 O   0  0  0  0  0  0  0  0  0  0  0  0
    3.9538    0.3566    0.5072 N   0  0  0  0  0  0  0  0  0  0  0  0
   -2.0545   -0.7255    2.0717 H   0  0  0  0  0  0  0  0  0  0  0  0
   -2.0735   -1.9965    0.7302 H   0  0  0  0  0  0  0  0  0  0  0  0
   -3.3873   -0.8163    0.8937 H   0  0  0  0  0  0  0  0  0  0  0  0
   -2.2000   -0.0346   -0.8670 H   0  0  0  0  0  0  0  0  0  0  0  0
   -2.6940    2.6106   -0.7096 H   0  0  0  0  0  0  0  0  0  0  0  0
   -3.1594    2.6661    1.0314 H   0  0  0  0  0  0  0  0  0  0  0  0
    0.8141   -0.9536   -2.1594 H   0  0  0  0  0  0  0  0  0  0  0  0
   -0.9287   -1.2882   -2.1966 H   0  0  0  0  0  0  0  0  0  0  0  0
   -0.4150    0.4117   -2.1883 H   0  0  0  0  0  0  0  0  0  0  0  0
    0.9502    0.1932    1.1846 H   0  0  0  0  0  0  0  0  0  0  0  0
    0.7852   -1.5568    1.0575 H   0  0  0  0  0  0  0  0  0  0  0  0
    2.1252    0.1549   -1.0354 H   0  0  0  0  0  0  0  0  0  0  0  0
    2.1552   -1.6701   -0.7922 H   0  0  0  0  0  0  0  0  0  0  0  0
    4.4704    0.5879   -0.2683 H   0  0  0  0  0  0  0  0  0  0  0  0
    4.4860    0.4435    1.4100 H   0  0  0  0  0  0  0  0  0  0  0  0
  1  2  1  0
  2  3  1  0
  3  4  1  0
  3  5  2  0
  2  6  1  0
  6  7  1  0
  6  8  1  0
  8  9  1  0
  9 10  1  0
 10 11  1  0
  1 12  1  0
  1 13  1  0
  1 14  1  0
  2 15  1  6
  4 16  1  0
  4 17  1  0
  7 18  1  0
  7 19  1  0
  7 20  1  0
  8 21  1  0
  8 22  1  0
  9 23  1  0
  9 24  1  0
 11 25  1  0
 11 26  1  0
M  END
$$$$

     RDKit          3D

 26 25  0  0  0  0  0  0  0  0999 V2000
   -1.6358   -1.0126    1.2617 C   0  0  0  0  0  0  0  0  0  0  0  0
   -1.5224   -0.3701   -0.1046 C   0  0  1  0  0  0  0  0  0  0  0  0
   -2.2667    0.8659   -0.2546 C   0  0  0  0  0  0  0  0  0  0  0  0
   -3.6523    0.9507    0.1336 N   0  0  0  0  0  0  0  0  0  0  0  0
   -1.7493    1.8950   -0.7197 O   0  0  0  0  0  0  0  0  0  0  0  0
   -0.1487   -0.3593   -0.4716 N   0  0  0  0  0  0  0  0  0  0  0  0
    0.4032   -1.6660   -0.6290 C   0  0  0  0  0  0  0  0  0  0  0  0
    0.6632    0.5911    0.1933 C   0  0  0  0  0  0  0  0  0  0  0  0
    2.1096    0.5236   -0.2133 C   0  0  0  0  0  0  0  0  0  0  0  0
    2.8215    1.5145    0.5098 O   0  0  0  0  0  0  0  0  0  0  0  0
    4.1219    1.4442    0.1428 N   0  0  0  0  0  0  0  0  0  0  0  0
   -0.6344   -1.3883    1.6221 H   0  0  0  0  0  0  0  0  0  0  0  0
   -1.9380   -0.2548    2.0116 H   0  0  0  0  0  0  0  0  0  0  0  0
   -2.3365   -1.8539    1.2744 H   0  0  0  0  0  0  0  0  0  0  0  0
   -2.0159   -1.1188   -0.8159 H   0  0  0  0  0  0  0  0  0  0  0  0
   -3.9569    1.7791    0.6964 H   0  0  0  0  0  0  0  0  0  0  0  0
   -4.3068    0.1941   -0.1543 H   0  0  0  0  0  0  0  0  0  0  0  0
   -0.4355   -2.3904   -0.3986 H   0  0  0  0  0  0  0  0  0  0  0  0
    0.6863   -1.9104   -1.6927 H   0  0  0  0  0  0  0  0  0  0  0  0
    1.1936   -1.9181    0.0608 H   0  0  0  0  0  0  0  0  0  0  0  0
    0.6304    0.3502    1.2978 H   0  0  0  0  0  0  0  0  0  0  0  0
    0.3542    1.6467    0.1083 H   0  0  0  0  0  0  0  0  0  0  0  0
    2.5304   -0.4306    0.1605 H   0  0  0  0  0  0  0  0  0  0  0  0
    2.2955    0.7316   -1.2684 H   0  0  0  0  0  0  0  0  0  0  0  0
    4.5012    0.4980    0.3387 H   0  0  0  0  0  0  0  0  0  0  0  0
    4.2882    1.6889   -0.8470 H   0  0  0  0  0  0  0  0  0  0  0  0
  1  2  1  0
  2  3  1  0
  3  4  1  0
  3  5  2  0
  2  6  1  0
  6  7  1  0
  6  8  1  0
  8  9  1  0
  9 10  1  0
 10 11  1  0
  1 12  1  0
  1 13  1  0
  1 14  1  0
  2 15  1  6
  4 16  1  0
  4 17  1  0
  7 18  1  0
  7 19  1  0
  7 20  1  0
  8 21  1  0
  8 22  1  0
  9 23  1  0
  9 24  1  0
 11 25  1  0
 11 26  1  0
M  END
$$$$
