
     RDKit          3D

 26 25  0  0  0  0  0  0  0  0999 V2000
    0.7098   -2.0145    1.3136 C   0  0  0  0  0  0  0  0  0  0  0  0
    1.1247   -0.6789    0.8737 N   0  0  0  0  0  0  0  0  0  0  0  0
   -0.0175    0.1393    0.5870 C   0  0  0  0  0  0  0  0  0  0  0  0
   -0.8019   -0.3540   -0.6409 C   0  0  0  0  0  0  0  0  0  0  0  0
   -1.9658    0.6130   -0.8462 C   0  0  0  0  0  0  0  0  0  0  0  0
   -2.7747    0.6286    0.3049 O   0  0  0  0  0  0  0  0  0  0  0  0
   -3.7981    1.4547    0.2164 N   0  0  0  0  0  0  0  0  0  0  0  0
    2.0373   -0.8548   -0.2182 C   0  0  0  0  0  0  0  0  0  0  0  0
    2.7040    0.3672   -0.6933 C   0  0  0  0  0  0  0  0  0  0  0  0
    2.5003    1.6296   -0.1088 N   0  0  0  0  0  0  0  0  0  0  0  0
    3.4987    0.2918   -1.6695 O   0  0  0  0  0  0  0  0  0  0  0  0
    0.2502   -2.5989    0.4984 H   0  0  0  0  0  0  0  0  0  0  0  0
    1.6836   -2.5433    1.5565 H   0  0  0  0  0  0  0  0  0  0  0  0
    0.1404   -1.9934    2.2511 H   0  0  0  0  0  0  0  0  0  0  0  0
   -0.7405   -0.0548    1.4359 H   0  0  0  0  0  0  0  0  0  0  0  0
    0.1667    1.1910    0.4264 H   0  0  0  0  0  0  0  0  0  0  0  0
   -1.2479   -1.3156   -0.3431 H   0  0  0  0  0  0  0  0  0  0  0  0
   -0.1839   -0.4498   -1.5309 H   0  0  0  0  0  0  0  0  0  0  0  0
   -1.6001    1.6296   -1.1105 H   0  0  0  0  0  0  0  0  0  0  0  0
   -2.5686    0.2004   -1.6824 H   0  0  0  0  0  0  0  0  0  0  0  0
   -4.7178    1.1281    0.4821 H   0  0  0  0  0  0  0  0  0  0  0  0
   -3.7146    2.2962   -0.3521 H   0  0  0  0  0  0  0  0  0  0  0  0
    1.6208   -1.4134   -1.0843 H   0  0  0  0  0  0  0  0  0  0  0  0
    2.8568   -1.5251    0.1918 H   0  0  0  0  0  0  0  0  0  0  0  0
    2.4491    2.5488   -0.6018 H   0  0  0  0  0  0  0  0  0  0  0  0
    2.3890    1.6780    0.9523 H   0  0  0  0  0  0  0  0  0  0  0  0
  1  2  1  0
  2  3  1  0
  3  4  1  0
  4  5  1  0
  5  6  1  0
  6  7  1  0
  2  8  1  0
  8  9  1  0
  9 10  1  0
  9 11  2  0
  1 12  1  0
  1 13  1  0
  1 14  1  0
  3 15  1  0
  3 16  1  0
  4 17  1  0
  4 18  1  0
  5 19  1  0
  5 20  1  0
  7 21  1  0
  7 22  1  0
  8 23  1  0
  8 24  1  0
 10 25  1  0
 10 26  1  0
M  END
$$$$

     RDKit          3D

 26 25  0  0  0  0  0  0  0  0999 V2000
   -0.3876   -1.1385    0.6648 C   0  0  0  0  0  0  0  0  0  0  0  0
   -0.7576    0.1777    0.3164 N   0  0  0  0  0  0  0  0  0  0  0  0
    0.2251    1.1728    0.1665 C   0  0  0  0  0  0  0  0  0  0  0  0
    1.1453    1.0927   -0.9949 C   0  0  0  0  0  0  0  0  0  0  0  0
    2.0067   -0.1339   -1.0732 C   0  0  0  0  0  0  0  0  0  0  0  0
    2.8264   -0.2382    0.0474 O   0  0  0  0  0  0  0  0  0  0  0  0
    3.6145   -1.3383   -0.0184 N   0  0  0  0  0  0  0  0  0  0  0  0
   -1.9672    0.5903    0.9643 C   0  0  0  0  0  0  0  0  0  0  0  0
   -3.1917   -0.0719    0.5172 C   0  0  0  0  0  0  0  0  0  0  0  0
   -3.2976   -1.0464   -0.4791 N   0  0  0  0  0  0  0  0  0  0  0  0
   -4.2847    0.2683    1.0877 O   0  0  0  0  0  0  0  0  0  0  0  0
   -1.1344   -1.6009    1.3900 H   0  0  0  0  0  0  0  0  0  0  0  0
   -0.3831   -1.8605   -0.1775 H   0  0  0  0  0  0  0  0  0  0  0  0
    0.5735   -1.2052    1.2465 H   0  0  0  0  0  0  0  0  0  0  0  0
   -0.3282    2.1606    0.0453 H   0  0  0  0  0  0  0  0  0  0  0  0
    0.8319    1.3494    1.0908 H   0  0  0  0  0  0  0  0  0  0  0  0
    1.8699    1.9628   -0.9485 H   0  0  0  0  0  0  0  0  0  0  0  0
    0.6324    1.2511   -1.9792 H   0  0  0  0  0  0  0  0  0  0  0  0
    2.7369    0.0536   -1.9283 H   0  0  0  0  0  0  0  0  0  0  0  0
    1.4781   -1.0491   -1.3420 H   0  0  0  0  0  0  0  0  0  0  0  0
    4.0481   -1.5595    0.9021 H   0  0  0  0  0  0  0  0  0  0  0  0
    4.4162   -1.2107   -0.6790 H   0  0  0  0  0  0  0  0  0  0  0  0
   -2.0756    1.6913    0.8473 H   0  0  0  0  0  0  0  0  0  0  0  0
   -1.9148    0.4397    2.0849 H   0  0  0  0  0  0  0  0  0  0  0  0
   -2.4792   -1.2906   -1.0826 H   0  0  0  0  0  0  0  0  0  0  0  0
   -4.2032   -1.5752   -0.6686 H   0  0  0  0  0  0  0  0  0  0  0  0
  1  2  1  0
  2  3  1  0
  3  4  1  0
  4  5  1  0
  5  6  1  0
  6  7  1  0
  2  8  1  0
  8  9  1  0
  9 10  1  0
  9 11  2  0
  1 12  1  0
  1 13  1  0
  1 14  1  0
  3 15  1  0
  3 16  1  0
  4 17  1  0
  4 18  1  0
  5 19  1  0
  5 20  1  0
  7 21  1  0
  7 22  1  0
  8 23  1  0
  8 24  1  0
 10 25  1  0
 10 26  1  0
M  END
$$$$

     RDKit          3D

 26 25  0  0  0  0  0  0  0  0999 V2000
   -1.4926    1.5662   -0.3339 C   0  0  0  0  0  0  0  0  0  0  0  0
   -1.0326    0.4135    0.3346 N   0  0  0  0  0  0  0  0  0  0  0  0
    0.3601    0.2935    0.5795 C   0  0  0  0  0  0  0  0  0  0  0  0
    1.2027    0.1040   -0.6430 C   0  0  0  0  0  0  0  0  0  0  0  0
    2.6745   -0.0174   -0.2832 C   0  0  0  0  0  0  0  0  0  0  0  0
    2.8939   -1.1052    0.5595 O   0  0  0  0  0  0  0  0  0  0  0  0
    4.2150   -1.1482    0.8332 N   0  0  0  0  0  0  0  0  0  0  0  0
   -1.6252   -0.8318   -0.0160 C   0  0  0  0  0  0  0  0  0  0  0  0
   -3.0323   -0.9673    0.3898 C   0  0  0  0  0  0  0  0  0  0  0  0
   -3.7835    0.0254    1.0725 N   0  0  0  0  0  0  0  0  0  0  0  0
   -3.6502   -2.0328    0.1255 O   0  0  0  0  0  0  0  0  0  0  0  0
   -2.5485    1.7722    0.0041 H   0  0  0  0  0  0  0  0  0  0  0  0
   -0.9055    2.4364    0.0294 H   0  0  0  0  0  0  0  0  0  0  0  0
   -1.5437    1.4998   -1.4297 H   0  0  0  0  0  0  0  0  0  0  0  0
    0.7892    1.1569    1.1534 H   0  0  0  0  0  0  0  0  0  0  0  0
    0.5514   -0.5984    1.2425 H   0  0  0  0  0  0  0  0  0  0  0  0
    1.1118    0.8857   -1.3932 H   0  0  0  0  0  0  0  0  0  0  0  0
    0.9338   -0.8637   -1.1401 H   0  0  0  0  0  0  0  0  0  0  0  0
    3.2874   -0.1835   -1.1959 H   0  0  0  0  0  0  0  0  0  0  0  0
    3.0402    0.8796    0.2476 H   0  0  0  0  0  0  0  0  0  0  0  0
    4.7247   -0.8497   -0.0243 H   0  0  0  0  0  0  0  0  0  0  0  0
    4.4914   -0.5069    1.6012 H   0  0  0  0  0  0  0  0  0  0  0  0
   -1.0451   -1.6333    0.5244 H   0  0  0  0  0  0  0  0  0  0  0  0
   -1.5128   -1.0913   -1.0951 H   0  0  0  0  0  0  0  0  0  0  0  0
   -4.5925    0.5363    0.6632 H   0  0  0  0  0  0  0  0  0  0  0  0
   -3.5114    0.2599    2.0626 H   0  0  0  0  0  0  0  0  0  0  0  0
  1  2  1  0
  2  3  1  0
  3  4  1  0
  4  5  1  0
  5  6  1  0
  6  7  1  0
  2  8  1  0
  8  9  1  0
  9 10  1  0
  9 11  2  0
  1 12  1  0
  1 13  1  0
  1 14  1  0
  3 15  1  0
  3 16  1  0
  4 17  1  0
  4 18  1  0
  5 19  1  0
  5 20  1  0
  7 21  1  0
  7 22  1  0
  8 23  1  0
  8 24  1  0
 10 25  1  0
 10 26  1  0
M  END
$$$$

     RDKit          3D

 26 25  0  0  0  0  0  0  0  0999 V2000
   -0.8119   -2.2909   -0.1393 C   0  0  0  0  0  0  0  0  0  0  0  0
   -0.9396   -0.9480    0.4037 N   0  0  0  0  0  0  0  0  0  0  0  0
    0.1416   -0.1106   -0.0257 C   0  0  0  0  0  0  0  0  0  0  0  0
    1.4648   -0.4730    0.5955 C   0  0  0  0  0  0  0  0  0  0  0  0
    2.4965    0.4974    0.0628 C   0  0  0  0  0  0  0  0  0  0  0  0
    2.5414    0.3628   -1.3302 O   0  0  0  0  0  0  0  0  0  0  0  0
    3.4743    1.2463   -1.7563 N   0  0  0  0  0  0  0  0  0  0  0  0
   -2.2030   -0.3328    0.0804 C   0  0  0  0  0  0  0  0  0  0  0  0
   -2.3884    0.9328    0.8200 C   0  0  0  0  0  0  0  0  0  0  0  0
   -3.5632    1.7077    0.6359 N   0  0  0  0  0  0  0  0  0  0  0  0
   -1.5536    1.4029    1.6379 O   0  0  0  0  0  0  0  0  0  0  0  0
   -1.7975   -2.8061   -0.0667 H   0  0  0  0  0  0  0  0  0  0  0  0
   -0.1303   -2.8612    0.5532 H   0  0  0  0  0  0  0  0  0  0  0  0
   -0.5117   -2.3198   -1.1843 H   0  0  0  0  0  0  0  0  0  0  0  0
    0.2711   -0.3453   -1.1247 H   0  0  0  0  0  0  0  0  0  0  0  0
   -0.1183    0.9485    0.0200 H   0  0  0  0  0  0  0  0  0  0  0  0
    1.4358   -0.4636    1.7040 H   0  0  0  0  0  0  0  0  0  0  0  0
    1.8065   -1.4854    0.3174 H   0  0  0  0  0  0  0  0  0  0  0  0
    2.1093    1.5270    0.2727 H   0  0  0  0  0  0  0  0  0  0  0  0
    3.4792    0.3240    0.4974 H   0  0  0  0  0  0  0  0  0  0  0  0
    3.6437    1.9742   -1.0041 H   0  0  0  0  0  0  0  0  0  0  0  0
    4.3737    0.7026   -1.8188 H   0  0  0  0  0  0  0  0  0  0  0  0
   -3.0615   -1.0134    0.3101 H   0  0  0  0  0  0  0  0  0  0  0  0
   -2.1829   -0.1522   -1.0261 H   0  0  0  0  0  0  0  0  0  0  0  0
   -4.0132    1.7697   -0.2940 H   0  0  0  0  0  0  0  0  0  0  0  0
   -3.9628    2.2064    1.4424 H   0  0  0  0  0  0  0  0  0  0  0  0
  1  2  1  0
  2  3  1  0
  3  4  1  0
  4  5  1  0
  5  6  1  0
  6  7  1  0
  2  8  1  0
  8  9  1  0
  9 10  1  0
  9 11  2  0
  1 12  1  0
  1 13  1  0
  1 14  1  0
  3 15  1  0
  3 16  1  0
  4 17  1  0
  4 18  1  0
  5 19  1  0
  5 20  1  0
  7 21  1  0
  7 22  1  0
  8 23  1  0
  8 24  1  0
 10 25  1  0
 10 26  1  0
M  END
$$$$

     RDKit          3D

 26 25  0  0  0  0  0  0  0  0999 V2000
    1.5935   -1.3207   -0.0814 C   0  0  0  0  0  0  0  0  0  0  0  0
    1.0165   -0.0351    0.1556 N   0  0  0  0  0  0  0  0  0  0  0  0
   -0.4099   -0.0339    0.3782 C   0  0  0  0  0  0  0  0  0  0  0  0
   -1.1987   -0.4148   -0.8258 C   0  0  0  0  0  0  0  0  0  0  0  0
   -2.6842   -0.3483   -0.4637 C   0  0  0  0  0  0  0  0  0  0  0  0
   -3.0292    0.9481   -0.0759 O   0  0  0  0  0  0  0  0  0  0  0  0
   -4.3318    0.9794    0.2202 N   0  0  0  0  0  0  0  0  0  0  0  0
    1.7028    0.6163    1.2458 C   0  0  0  0  0  0  0  0  0  0  0  0
    3.0654    0.9892    0.8339 C   0  0  0  0  0  0  0  0  0  0  0  0
    3.5135    0.7158   -0.4719 N   0  0  0  0  0  0  0  0  0  0  0  0
    3.8259    1.5610    1.6744 O   0  0  0  0  0  0  0  0  0  0  0  0
    1.6398   -1.5525   -1.1825 H   0  0  0  0  0  0  0  0  0  0  0  0
    1.0519   -2.1424    0.4615 H   0  0  0  0  0  0  0  0  0  0  0  0
    2.6228   -1.3281    0.3300 H   0  0  0  0  0  0  0  0  0  0  0  0
   -0.6700    0.9824    0.7398 H   0  0  0  0  0  0  0  0  0  0  0  0
   -0.6533   -0.7217    1.2108 H   0  0  0  0  0  0  0  0  0  0  0  0
   -1.0200   -1.5110   -1.0264 H   0  0  0  0  0  0  0  0  0  0  0  0
   -0.9574    0.1350   -1.7382 H   0  0  0  0  0  0  0  0  0  0  0  0
   -2.8573   -1.0598    0.3702 H   0  0  0  0  0  0  0  0  0  0  0  0
   -3.3113   -0.6817   -1.3135 H   0  0  0  0  0  0  0  0  0  0  0  0
   -4.4457    1.5804    1.0673 H   0  0  0  0  0  0  0  0  0  0  0  0
   -4.7537    0.0629    0.4209 H   0  0  0  0  0  0  0  0  0  0  0  0
    1.7869   -0.1349    2.0822 H   0  0  0  0  0  0  0  0  0  0  0  0
    1.1250    1.4871    1.6313 H   0  0  0  0  0  0  0  0  0  0  0  0
    4.5262    0.7438   -0.7067 H   0  0  0  0  0  0  0  0  0  0  0  0
    2.8523    0.4836   -1.2239 H   0  0  0  0  0  0  0  0  0  0  0  0
  1  2  1  0
  2  3  1  0
  3  4  1  0
  4  5  1  0
  5  6  1  0
  6  7  1  0
  2  8  1  0
  8  9  1  0
  9 10  1  0
  9 11  2  0
  1 12  1  0
  1 13  1  0
  1 14  1  0
  3 15  1  0
  3 16  1  0
  4 17  1  0
  4 18  1  0
  5 19  1  0
  5 20  1  0
  7 21  1  0
  7 22  1  0
  8 23  1  0
  8 24  1  0
 10 25  1  0
 10 26  1  0
M  END
$$$$

     RDKit          3D

 26 25  0  0  0  0  0  0  0  0999 V2000
   -0.2736    1.0716   -0.7960 C   0  0  0  0  0  0  0  0  0  0  0  0
   -0.6245   -0.0238   -0.0104 N   0  0  0  0  0  0  0  0  0  0  0  0
    0.2656   -1.0072    0.3811 C   0  0  0  0  0  0  0  0  0  0  0  0
    1.3300   -0.7331    1.3693 C   0  0  0  0  0  0  0  0  0  0  0  0
    2.2559    0.3437    0.8821 C   0  0  0  0  0  0  0  0  0  0  0  0
    2.8128   -0.1152   -0.3242 O   0  0  0  0  0  0  0  0  0  0  0  0
    3.6691    0.7910   -0.8423 N   0  0  0  0  0  0  0  0  0  0  0  0
   -1.9712   -0.1256    0.4045 C   0  0  0  0  0  0  0  0  0  0  0  0
   -2.8310   -0.4349   -0.7657 C   0  0  0  0  0  0  0  0  0  0  0  0
   -4.2555   -0.5741   -0.6173 N   0  0  0  0  0  0  0  0  0  0  0  0
   -2.3776   -0.5897   -1.9270 O   0  0  0  0  0  0  0  0  0  0  0  0
    0.5824    0.9361   -1.4962 H   0  0  0  0  0  0  0  0  0  0  0  0
   -0.1724    2.0576   -0.2913 H   0  0  0  0  0  0  0  0  0  0  0  0
   -1.1398    1.2695   -1.5144 H   0  0  0  0  0  0  0  0  0  0  0  0
    0.6893   -1.4913   -0.5630 H   0  0  0  0  0  0  0  0  0  0  0  0
   -0.3452   -1.8752    0.8004 H   0  0  0  0  0  0  0  0  0  0  0  0
    0.9611   -0.5417    2.3963 H   0  0  0  0  0  0  0  0  0  0  0  0
    1.9964   -1.6463    1.4972 H   0  0  0  0  0  0  0  0  0  0  0  0
    3.1002    0.4940    1.6331 H   0  0  0  0  0  0  0  0  0  0  0  0
    1.7644    1.3190    0.7292 H   0  0  0  0  0  0  0  0  0  0  0  0
    4.3456    1.1510   -0.1321 H   0  0  0  0  0  0  0  0  0  0  0  0
    4.1624    0.3025   -1.6279 H   0  0  0  0  0  0  0  0  0  0  0  0
   -2.1255   -0.9148    1.1640 H   0  0  0  0  0  0  0  0  0  0  0  0
   -2.3021    0.8771    0.7932 H   0  0  0  0  0  0  0  0  0  0  0  0
   -4.7698   -1.1105   -1.3236 H   0  0  0  0  0  0  0  0  0  0  0  0
   -4.7472   -0.1457    0.1811 H   0  0  0  0  0  0  0  0  0  0  0  0
  1  2  1  0
  2  3  1  0
  3  4  1  0
  4  5  1  0
  5  6  1  0
  6  7  1  0
  2  8  1  0
  8  9  1  0
  9 10  1  0
  9 11  2  0
  1 12  1  0
  1 13  1  0
  1 14  1  0
  3 15  1  0
  3 16  1  0
  4 17  1  0
  4 18  1  0
  5 19  1  0
  5 20  1  0
  7 21  1  0
  7 22  1  0
  8 23  1  0
  8 24  1  0
 10 25  1  0
 10 26  1  0
M  END
$$$$

     RDKit          3D

 26 25  0  0  0  0  0  0  0  0999 V2000
    0.7450   -2.0494    0.2538 C   0  0  0  0  0  0  0  0  0  0  0  0
    0.9653   -0.6474    0.6215 N   0  0  0  0  0  0  0  0  0  0  0  0
    0.0464    0.1187   -0.1622 C   0  0  0  0  0  0  0  0  0  0  0  0
   -1.3530   -0.1963    0.3301 C   0  0  0  0  0  0  0  0  0  0  0  0
   -2.4090    0.5673   -0.4393 C   0  0  0  0  0  0  0  0  0  0  0  0
   -3.6503    0.1896    0.1101 O   0  0  0  0  0  0  0  0  0  0  0  0
   -4.5999    0.8611   -0.5634 N   0  0  0  0  0  0  0  0  0  0  0  0
    2.3458   -0.3607    0.4014 C   0  0  0  0  0  0  0  0  0  0  0  0
    2.7578    1.0056    0.7222 C   0  0  0  0  0  0  0  0  0  0  0  0
    4.1135    1.3774    0.5311 N   0  0  0  0  0  0  0  0  0  0  0  0
    1.9768    1.8825    1.1618 O   0  0  0  0  0  0  0  0  0  0  0  0
    1.7104   -2.5981    0.1646 H   0  0  0  0  0  0  0  0  0  0  0  0
    0.2781   -2.1225   -0.7712 H   0  0  0  0  0  0  0  0  0  0  0  0
    0.0377   -2.5438    0.9488 H   0  0  0  0  0  0  0  0  0  0  0  0
    0.2407    1.1859   -0.2310 H   0  0  0  0  0  0  0  0  0  0  0  0
    0.0839   -0.2814   -1.2178 H   0  0  0  0  0  0  0  0  0  0  0  0
   -1.4608    0.1097    1.4087 H   0  0  0  0  0  0  0  0  0  0  0  0
   -1.5597   -1.2856    0.3084 H   0  0  0  0  0  0  0  0  0  0  0  0
   -2.4419    0.2797   -1.4981 H   0  0  0  0  0  0  0  0  0  0  0  0
   -2.2595    1.6519   -0.2889 H   0  0  0  0  0  0  0  0  0  0  0  0
   -5.1495    0.2236   -1.2080 H   0  0  0  0  0  0  0  0  0  0  0  0
   -5.3284    1.2764    0.0864 H   0  0  0  0  0  0  0  0  0  0  0  0
    2.9210   -1.0348    1.1035 H   0  0  0  0  0  0  0  0  0  0  0  0
    2.6787   -0.6863   -0.6170 H   0  0  0  0  0  0  0  0  0  0  0  0
    4.3940    2.2046   -0.0746 H   0  0  0  0  0  0  0  0  0  0  0  0
    4.9168    0.8723    0.9661 H   0  0  0  0  0  0  0  0  0  0  0  0
  1  2  1  0
  2  3  1  0
  3  4  1  0
  4  5  1  0
  5  6  1  0
  6  7  1  0
  2  8  1  0
  8  9  1  0
  9 10  1  0
  9 11  2  0
  1 12  1  0
  1 13  1  0
  1 14  1  0
  3 15  1  0
  3 16  1  0
  4 17  1  0
  4 18  1  0
  5 19  1  0
  5 20  1  0
  7 21  1  0
  7 22  1  0
  8 23  1  0
  8 24  1  0
 10 25  1  0
 10 26  1  0
M  END
$$$$

     RDKit          3D

 26 25  0  0  0  0  0  0  0  0999 V2000
   -1.5140   -2.0261    0.4730 C   0  0  0  0  0  0  0  0  0  0  0  0
   -1.2343   -0.6159    0.6396 N   0  0  0  0  0  0  0  0  0  0  0  0
    0.1458   -0.3597    0.8574 C   0  0  0  0  0  0  0  0  0  0  0  0
    0.8985   -0.6853   -0.4242 C   0  0  0  0  0  0  0  0  0  0  0  0
    2.3777   -0.5012   -0.3226 C   0  0  0  0  0  0  0  0  0  0  0  0
    2.7962    0.7662   -0.0242 O   0  0  0  0  0  0  0  0  0  0  0  0
    4.1070    0.9106    0.0855 N   0  0  0  0  0  0  0  0  0  0  0  0
   -2.0453    0.2318   -0.0828 C   0  0  0  0  0  0  0  0  0  0  0  0
   -2.0214    1.6617    0.1596 C   0  0  0  0  0  0  0  0  0  0  0  0
   -2.9041    2.4767   -0.6471 N   0  0  0  0  0  0  0  0  0  0  0  0
   -1.3066    2.2055    1.0020 O   0  0  0  0  0  0  0  0  0  0  0  0
   -1.2380   -2.4002   -0.5342 H   0  0  0  0  0  0  0  0  0  0  0  0
   -2.5964   -2.1830    0.5940 H   0  0  0  0  0  0  0  0  0  0  0  0
   -1.0356   -2.6580    1.2445 H   0  0  0  0  0  0  0  0  0  0  0  0
    0.3271    0.6927    1.0658 H   0  0  0  0  0  0  0  0  0  0  0  0
    0.5596   -0.9246    1.7154 H   0  0  0  0  0  0  0  0  0  0  0  0
    0.6928   -1.7613   -0.6865 H   0  0  0  0  0  0  0  0  0  0  0  0
    0.5386   -0.0147   -1.2583 H   0  0  0  0  0  0  0  0  0  0  0  0
    2.8395   -1.2827    0.3297 H   0  0  0  0  0  0  0  0  0  0  0  0
    2.7922   -0.7395   -1.3425 H   0  0  0  0  0  0  0  0  0  0  0  0
    4.6342    0.2447    0.6474 H   0  0  0  0  0  0  0  0  0  0  0  0
    4.5936    1.4943   -0.5966 H   0  0  0  0  0  0  0  0  0  0  0  0
   -1.8490    0.0348   -1.1894 H   0  0  0  0  0  0  0  0  0  0  0  0
   -3.1241   -0.1023    0.0580 H   0  0  0  0  0  0  0  0  0  0  0  0
   -3.7360    2.0558   -1.1408 H   0  0  0  0  0  0  0  0  0  0  0  0
   -2.6979    3.4798   -0.7265 H   0  0  0  0  0  0  0  0  0  0  0  0
  1  2  1  0
  2  3  1  0
  3  4  1  0
  4  5  1  0
  5  6  1  0
  6  7  1  0
  2  8  1  0
  8  9  1  0
  9 10  1  0
  9 11  2  0
  1 12  1  0
  1 13  1  0
  1 14  1  0
  3 15  1  0
  3 16  1  0
  4 17  1  0
  4 18  1  0
  5 19  1  0
  5 20  1  0
  7 21  1  0
  7 22  1  0
  8 23  1  0
  8 24  1  0
 10 25  1  0
 10 26  1  0
M  END
$$$$
