
     RDKit          3D

 21 22  0  0  0  0  0  0  0  0999 V2000
    2.3790    0.6941   -0.6428 C   0  0  0  0  0  0  0  0  0  0  0  0
    2.2622   -0.4500    0.2549 N   0  0  0  0  0  0  0  0  0  0  0  0
    3.2946   -1.1143    0.7399 N   0  0  0  0  0  0  0  0  0  0  0  0
    2.8736   -2.0784    1.5073 N   0  0  0  0  0  0  0  0  0  0  0  0
    1.5821   -2.0507    1.5284 N   0  0  0  0  0  0  0  0  0  0  0  0
    1.1498   -1.0079    0.7277 C   0  0  0  0  0  0  0  0  0  0  0  0
   -0.1680   -0.7220    0.5478 O   0  0  0  0  0  0  0  0  0  0  0  0
   -0.7926    0.2466   -0.1894 C   0  0  2  0  0  0  0  0  0  0  0  0
   -1.8192    1.0406    0.6180 C   0  0  0  0  0  0  0  0  0  0  0  0
   -3.0521    0.3581    0.3806 N   0  0  0  0  0  0  0  0  0  0  0  0
   -2.8205   -0.7185   -0.3730 O   0  0  0  0  0  0  0  0  0  0  0  0
   -1.7660   -0.4060   -1.1942 C   0  0  0  0  0  0  0  0  0  0  0  0
    1.9873    1.5949   -0.1438 H   0  0  0  0  0  0  0  0  0  0  0  0
    1.9496    0.5074   -1.6328 H   0  0  0  0  0  0  0  0  0  0  0  0
    3.4691    0.9101   -0.8170 H   0  0  0  0  0  0  0  0  0  0  0  0
   -0.1636    0.9497   -0.7625 H   0  0  0  0  0  0  0  0  0  0  0  0
   -1.4960    1.0637    1.6695 H   0  0  0  0  0  0  0  0  0  0  0  0
   -1.8845    2.0421    0.1848 H   0  0  0  0  0  0  0  0  0  0  0  0
   -3.6367    0.1948    1.2056 H   0  0  0  0  0  0  0  0  0  0  0  0
   -1.3435   -1.3299   -1.5930 H   0  0  0  0  0  0  0  0  0  0  0  0
   -2.0047    0.2754   -2.0160 H   0  0  0  0  0  0  0  0  0  0  0  0
  1  2  1  0
  2  3  1  0
  3  4  2  0
  4  5  1  0
  5  6  2  0
  6  7  1  0
  7  8  1  0
  8  9  1  0
  9 10  1  0
 10 11  1  0
 11 12  1  0
  6  2  1  0
 12  8  1  0
  1 13  1  0
  1 14  1  0
  1 15  1  0
  8 16  1  6
  9 17  1  0
  9 18  1  0
 10 19  1  0
 12 20  1  0
 12 21  1  0
M  END
$$$$

     RDKit          3D

 21 22  0  0  0  0  0  0  0  0999 V2000
    2.8716   -0.2637    1.3496 C   0  0  0  0  0  0  0  0  0  0  0  0
    2.5399    0.3656    0.0948 N   0  0  0  0  0  0  0  0  0  0  0  0
    3.2976    0.9748   -0.7875 N   0  0  0  0  0  0  0  0  0  0  0  0
    2.5617    1.4033   -1.7992 N   0  0  0  0  0  0  0  0  0  0  0  0
    1.2966    1.0806   -1.5979 N   0  0  0  0  0  0  0  0  0  0  0  0
    1.2771    0.4286   -0.4098 C   0  0  0  0  0  0  0  0  0  0  0  0
    0.1678   -0.0913    0.2007 O   0  0  0  0  0  0  0  0  0  0  0  0
   -1.0869    0.0205   -0.3906 C   0  0  2  0  0  0  0  0  0  0  0  0
   -2.0890    0.6650    0.5764 C   0  0  0  0  0  0  0  0  0  0  0  0
   -3.3160    0.0267    0.1463 N   0  0  0  0  0  0  0  0  0  0  0  0
   -3.0142   -1.2522   -0.0632 O   0  0  0  0  0  0  0  0  0  0  0  0
   -1.7512   -1.3408   -0.5921 C   0  0  0  0  0  0  0  0  0  0  0  0
    2.3795    0.2829    2.1627 H   0  0  0  0  0  0  0  0  0  0  0  0
    3.9501   -0.3406    1.4947 H   0  0  0  0  0  0  0  0  0  0  0  0
    2.4108   -1.2918    1.3111 H   0  0  0  0  0  0  0  0  0  0  0  0
   -1.0865    0.5491   -1.3586 H   0  0  0  0  0  0  0  0  0  0  0  0
   -1.8137    0.3145    1.5920 H   0  0  0  0  0  0  0  0  0  0  0  0
   -2.0835    1.7477    0.4517 H   0  0  0  0  0  0  0  0  0  0  0  0
   -3.6333    0.4635   -0.7428 H   0  0  0  0  0  0  0  0  0  0  0  0
   -1.6973   -1.6343   -1.6409 H   0  0  0  0  0  0  0  0  0  0  0  0
   -1.1810   -2.1082    0.0027 H   0  0  0  0  0  0  0  0  0  0  0  0
  1  2  1  0
  2  3  1  0
  3  4  2  0
  4  5  1  0
  5  6  2  0
  6  7  1  0
  7  8  1  0
  8  9  1  0
  9 10  1  0
 10 11  1  0
 11 12  1  0
  6  2  1  0
 12  8  1  0
  1 13  1  0
  1 14  1  0
  1 15  1  0
  8 16  1  6
  9 17  1  0
  9 18  1  0
 10 19  1  0
 12 20  1  0
 12 21  1  0
M  END
$$$$

     RDKit          3D

 21 22  0  0  0  0  0  0  0  0999 V2000
    3.0590   -0.8395    0.5726 C   0  0  0  0  0  0  0  0  0  0  0  0
    2.5503    0.0778   -0.4231 N   0  0  0  0  0  0  0  0  0  0  0  0
    3.3348    0.7967   -1.2293 N   0  0  0  0  0  0  0  0  0  0  0  0
    2.5487    1.5325   -2.0196 N   0  0  0  0  0  0  0  0  0  0  0  0
    1.2841    1.2573   -1.6898 N   0  0  0  0  0  0  0  0  0  0  0  0
    1.2619    0.3522   -0.6959 C   0  0  0  0  0  0  0  0  0  0  0  0
    0.1726   -0.2181   -0.0461 O   0  0  0  0  0  0  0  0  0  0  0  0
   -1.0994    0.1642   -0.4376 C   0  0  2  0  0  0  0  0  0  0  0  0
   -1.9256    0.7452    0.7182 C   0  0  0  0  0  0  0  0  0  0  0  0
   -3.2432    0.5527    0.2040 N   0  0  0  0  0  0  0  0  0  0  0  0
   -3.2552   -0.4248   -0.6791 O   0  0  0  0  0  0  0  0  0  0  0  0
   -2.0101   -0.9766   -0.8102 C   0  0  0  0  0  0  0  0  0  0  0  0
    3.5742   -1.6934    0.0920 H   0  0  0  0  0  0  0  0  0  0  0  0
    3.7652   -0.2657    1.2077 H   0  0  0  0  0  0  0  0  0  0  0  0
    2.2179   -1.2261    1.1768 H   0  0  0  0  0  0  0  0  0  0  0  0
   -1.1316    0.8982   -1.2425 H   0  0  0  0  0  0  0  0  0  0  0  0
   -1.6444    1.7771    0.9214 H   0  0  0  0  0  0  0  0  0  0  0  0
   -1.7208    0.0941    1.6043 H   0  0  0  0  0  0  0  0  0  0  0  0
   -4.0029    0.5815    0.8876 H   0  0  0  0  0  0  0  0  0  0  0  0
   -1.9347   -1.8092   -0.0527 H   0  0  0  0  0  0  0  0  0  0  0  0
   -1.8008   -1.3761   -1.8245 H   0  0  0  0  0  0  0  0  0  0  0  0
  1  2  1  0
  2  3  1  0
  3  4  2  0
  4  5  1  0
  5  6  2  0
  6  7  1  0
  7  8  1  0
  8  9  1  0
  9 10  1  0
 10 11  1  0
 11 12  1  0
  6  2  1  0
 12  8  1  0
  1 13  1  0
  1 14  1  0
  1 15  1  0
  8 16  1  6
  9 17  1  0
  9 18  1  0
 10 19  1  0
 12 20  1  0
 12 21  1  0
M  END
$$$$

     RDKit          3D

 21 22  0  0  0  0  0  0  0  0999 V2000
   -2.9864    0.8235   -0.7857 C   0  0  0  0  0  0  0  0  0  0  0  0
   -2.5075   -0.2149    0.1078 N   0  0  0  0  0  0  0  0  0  0  0  0
   -3.2728   -1.0552    0.8091 N   0  0  0  0  0  0  0  0  0  0  0  0
   -2.4869   -1.8682    1.5163 N   0  0  0  0  0  0  0  0  0  0  0  0
   -1.2235   -1.5544    1.2727 N   0  0  0  0  0  0  0  0  0  0  0  0
   -1.2490   -0.5370    0.4057 C   0  0  0  0  0  0  0  0  0  0  0  0
   -0.1471    0.1209   -0.1339 O   0  0  0  0  0  0  0  0  0  0  0  0
    1.1551   -0.2699    0.2234 C   0  0  2  0  0  0  0  0  0  0  0  0
    1.8927    0.9272    0.7566 C   0  0  0  0  0  0  0  0  0  0  0  0
    3.0855    0.9960   -0.0904 N   0  0  0  0  0  0  0  0  0  0  0  0
    2.7189    0.4632   -1.2843 O   0  0  0  0  0  0  0  0  0  0  0  0
    1.9653   -0.6697   -0.9984 C   0  0  0  0  0  0  0  0  0  0  0  0
   -3.6818    1.5102   -0.2359 H   0  0  0  0  0  0  0  0  0  0  0  0
   -2.1254    1.3754   -1.1858 H   0  0  0  0  0  0  0  0  0  0  0  0
   -3.5601    0.3604   -1.6083 H   0  0  0  0  0  0  0  0  0  0  0  0
    1.1294   -1.1214    0.9483 H   0  0  0  0  0  0  0  0  0  0  0  0
    1.3124    1.8746    0.6553 H   0  0  0  0  0  0  0  0  0  0  0  0
    2.1678    0.7580    1.8180 H   0  0  0  0  0  0  0  0  0  0  0  0
    3.8325    0.4691    0.3845 H   0  0  0  0  0  0  0  0  0  0  0  0
    2.6543   -1.4788   -0.7083 H   0  0  0  0  0  0  0  0  0  0  0  0
    1.3266   -0.9089   -1.8669 H   0  0  0  0  0  0  0  0  0  0  0  0
  1  2  1  0
  2  3  1  0
  3  4  2  0
  4  5  1  0
  5  6  2  0
  6  7  1  0
  7  8  1  0
  8  9  1  0
  9 10  1  0
 10 11  1  0
 11 12  1  0
  6  2  1  0
 12  8  1  0
  1 13  1  0
  1 14  1  0
  1 15  1  0
  8 16  1  1
  9 17  1  0
  9 18  1  0
 10 19  1  0
 12 20  1  0
 12 21  1  0
M  END
$$$$

     RDKit          3D

 21 22  0  0  0  0  0  0  0  0999 V2000
    2.1230   -1.2494   -0.7330 C   0  0  0  0  0  0  0  0  0  0  0  0
    2.3316    0.1024   -0.2397 N   0  0  0  0  0  0  0  0  0  0  0  0
    3.5365    0.6860   -0.1641 N   0  0  0  0  0  0  0  0  0  0  0  0
    3.4086    1.9003    0.3178 N   0  0  0  0  0  0  0  0  0  0  0  0
    2.1433    2.1049    0.5522 N   0  0  0  0  0  0  0  0  0  0  0  0
    1.4380    0.9718    0.2042 C   0  0  0  0  0  0  0  0  0  0  0  0
    0.1005    0.8742    0.3316 O   0  0  0  0  0  0  0  0  0  0  0  0
   -0.8141   -0.0955    0.0725 C   0  0  2  0  0  0  0  0  0  0  0  0
   -1.9601    0.4271   -0.8065 C   0  0  0  0  0  0  0  0  0  0  0  0
   -3.1424   -0.1238   -0.2140 N   0  0  0  0  0  0  0  0  0  0  0  0
   -2.7852   -0.9204    0.7931 O   0  0  0  0  0  0  0  0  0  0  0  0
   -1.6257   -0.4127    1.3396 C   0  0  0  0  0  0  0  0  0  0  0  0
    1.4683   -1.1921   -1.6224 H   0  0  0  0  0  0  0  0  0  0  0  0
    3.1292   -1.6714   -1.0394 H   0  0  0  0  0  0  0  0  0  0  0  0
    1.6736   -1.8766    0.0549 H   0  0  0  0  0  0  0  0  0  0  0  0
   -0.4636   -1.0440   -0.3334 H   0  0  0  0  0  0  0  0  0  0  0  0
   -1.9519    1.5307   -0.7722 H   0  0  0  0  0  0  0  0  0  0  0  0
   -1.8705    0.0184   -1.8383 H   0  0  0  0  0  0  0  0  0  0  0  0
   -3.8025    0.6384    0.0705 H   0  0  0  0  0  0  0  0  0  0  0  0
   -1.8200    0.5183    1.9058 H   0  0  0  0  0  0  0  0  0  0  0  0
   -1.1166   -1.1868    1.9507 H   0  0  0  0  0  0  0  0  0  0  0  0
  1  2  1  0
  2  3  1  0
  3  4  2  0
  4  5  1  0
  5  6  2  0
  6  7  1  0
  7  8  1  0
  8  9  1  0
  9 10  1  0
 10 11  1  0
 11 12  1  0
  6  2  1  0
 12  8  1  0
  1 13  1  0
  1 14  1  0
  1 15  1  0
  8 16  1  6
  9 17  1  0
  9 18  1  0
 10 19  1  0
 12 20  1  0
 12 21  1  0
M  END
$$$$

     RDKit          3D

 21 22  0  0  0  0  0  0  0  0999 V2000
    2.8129    1.0134   -0.3620 C   0  0  0  0  0  0  0  0  0  0  0  0
    2.3773   -0.1512    0.3919 N   0  0  0  0  0  0  0  0  0  0  0  0
    3.1552   -0.9958    1.0506 N   0  0  0  0  0  0  0  0  0  0  0  0
    2.4059   -1.9298    1.6145 N   0  0  0  0  0  0  0  0  0  0  0  0
    1.1320   -1.7080    1.3321 N   0  0  0  0  0  0  0  0  0  0  0  0
    1.1302   -0.5922    0.5668 C   0  0  0  0  0  0  0  0  0  0  0  0
   -0.0043    0.0014    0.0438 O   0  0  0  0  0  0  0  0  0  0  0  0
   -1.3036   -0.4768    0.2388 C   0  0  2  0  0  0  0  0  0  0  0  0
   -1.9257   -0.6508   -1.1432 C   0  0  0  0  0  0  0  0  0  0  0  0
   -2.1332    0.7543   -1.4631 N   0  0  0  0  0  0  0  0  0  0  0  0
   -2.6409    1.3270   -0.3767 O   0  0  0  0  0  0  0  0  0  0  0  0
   -2.2233    0.6442    0.7369 C   0  0  0  0  0  0  0  0  0  0  0  0
    2.0267    1.3034   -1.0752 H   0  0  0  0  0  0  0  0  0  0  0  0
    3.7509    0.7330   -0.8942 H   0  0  0  0  0  0  0  0  0  0  0  0
    3.0433    1.8334    0.3727 H   0  0  0  0  0  0  0  0  0  0  0  0
   -1.3766   -1.3743    0.8468 H   0  0  0  0  0  0  0  0  0  0  0  0
   -2.9272   -1.1271   -1.0708 H   0  0  0  0  0  0  0  0  0  0  0  0
   -1.2430   -1.1441   -1.8333 H   0  0  0  0  0  0  0  0  0  0  0  0
   -1.1912    1.1711   -1.6463 H   0  0  0  0  0  0  0  0  0  0  0  0
   -3.1273    0.1171    1.1622 H   0  0  0  0  0  0  0  0  0  0  0  0
   -1.7381    1.2518    1.5077 H   0  0  0  0  0  0  0  0  0  0  0  0
  1  2  1  0
  2  3  1  0
  3  4  2  0
  4  5  1  0
  5  6  2  0
  6  7  1  0
  7  8  1  0
  8  9  1  0
  9 10  1  0
 10 11  1  0
 11 12  1  0
  6  2  1  0
 12  8  1  0
  1 13  1  0
  1 14  1  0
  1 15  1  0
  8 16  1  1
  9 17  1  0
  9 18  1  0
 10 19  1  0
 12 20  1  0
 12 21  1  0
M  END
$$$$

     RDKit          3D

 21 22  0  0  0  0  0  0  0  0999 V2000
   -2.3102    0.6885    0.8640 C   0  0  0  0  0  0  0  0  0  0  0  0
   -2.3415   -0.3402   -0.1596 N   0  0  0  0  0  0  0  0  0  0  0  0
   -3.4493   -0.8682   -0.6270 N   0  0  0  0  0  0  0  0  0  0  0  0
   -3.1674   -1.7556   -1.5266 N   0  0  0  0  0  0  0  0  0  0  0  0
   -1.8694   -1.8207   -1.6604 N   0  0  0  0  0  0  0  0  0  0  0  0
   -1.3082   -0.9102   -0.7825 C   0  0  0  0  0  0  0  0  0  0  0  0
    0.0309   -0.7354   -0.6792 O   0  0  0  0  0  0  0  0  0  0  0  0
    0.8138    0.0702    0.0835 C   0  0  2  0  0  0  0  0  0  0  0  0
    1.7999    0.8958   -0.7670 C   0  0  0  0  0  0  0  0  0  0  0  0
    2.8560    1.1219    0.1568 N   0  0  0  0  0  0  0  0  0  0  0  0
    2.7808    0.2665    1.1585 O   0  0  0  0  0  0  0  0  0  0  0  0
    1.8861   -0.7269    0.8682 C   0  0  0  0  0  0  0  0  0  0  0  0
   -1.8022    0.2940    1.7510 H   0  0  0  0  0  0  0  0  0  0  0  0
   -1.8706    1.5868    0.4356 H   0  0  0  0  0  0  0  0  0  0  0  0
   -3.3587    0.9615    1.1447 H   0  0  0  0  0  0  0  0  0  0  0  0
    0.2680    0.7192    0.7633 H   0  0  0  0  0  0  0  0  0  0  0  0
    2.1571    0.2138   -1.5652 H   0  0  0  0  0  0  0  0  0  0  0  0
    1.3073    1.8034   -1.1531 H   0  0  0  0  0  0  0  0  0  0  0  0
    3.7988    1.1595   -0.2787 H   0  0  0  0  0  0  0  0  0  0  0  0
    1.4522   -1.1619    1.7777 H   0  0  0  0  0  0  0  0  0  0  0  0
    2.3269   -1.4621    0.1960 H   0  0  0  0  0  0  0  0  0  0  0  0
  1  2  1  0
  2  3  1  0
  3  4  2  0
  4  5  1  0
  5  6  2  0
  6  7  1  0
  7  8  1  0
  8  9  1  0
  9 10  1  0
 10 11  1  0
 11 12  1  0
  6  2  1  0
 12  8  1  0
  1 13  1  0
  1 14  1  0
  1 15  1  0
  8 16  1  1
  9 17  1  0
  9 18  1  0
 10 19  1  0
 12 20  1  0
 12 21  1  0
M  END
$$$$

     RDKit          3D

 21 22  0  0  0  0  0  0  0  0999 V2000
   -2.3879    0.7941    0.2693 C   0  0  0  0  0  0  0  0  0  0  0  0
   -2.2816   -0.4302   -0.4966 N   0  0  0  0  0  0  0  0  0  0  0  0
   -3.3466   -1.0884   -0.9947 N   0  0  0  0  0  0  0  0  0  0  0  0
   -2.8754   -2.1417   -1.6248 N   0  0  0  0  0  0  0  0  0  0  0  0
   -1.5649   -2.1714   -1.5430 N   0  0  0  0  0  0  0  0  0  0  0  0
   -1.1491   -1.0733   -0.8165 C   0  0  0  0  0  0  0  0  0  0  0  0
    0.1650   -0.8473   -0.5725 O   0  0  0  0  0  0  0  0  0  0  0  0
    0.7862    0.1653    0.1176 C   0  0  2  0  0  0  0  0  0  0  0  0
    1.8272    0.8338   -0.7797 C   0  0  0  0  0  0  0  0  0  0  0  0
    3.0535    0.1851   -0.4638 N   0  0  0  0  0  0  0  0  0  0  0  0
    2.8766   -0.6642    0.5329 O   0  0  0  0  0  0  0  0  0  0  0  0
    1.7197   -0.3658    1.2040 C   0  0  0  0  0  0  0  0  0  0  0  0
   -2.0077    0.6413    1.2959 H   0  0  0  0  0  0  0  0  0  0  0  0
   -1.8864    1.6419   -0.2248 H   0  0  0  0  0  0  0  0  0  0  0  0
   -3.4725    1.0799    0.3116 H   0  0  0  0  0  0  0  0  0  0  0  0
    0.1827    0.9429    0.5687 H   0  0  0  0  0  0  0  0  0  0  0  0
    1.5547    0.6748   -1.8560 H   0  0  0  0  0  0  0  0  0  0  0  0
    1.8496    1.9307   -0.5848 H   0  0  0  0  0  0  0  0  0  0  0  0
    3.8597    0.8247   -0.3852 H   0  0  0  0  0  0  0  0  0  0  0  0
    1.8326    0.3811    2.0064 H   0  0  0  0  0  0  0  0  0  0  0  0
    1.2649   -1.3133    1.6183 H   0  0  0  0  0  0  0  0  0  0  0  0
  1  2  1  0
  2  3  1  0
  3  4  2  0
  4  5  1  0
  5  6  2  0
  6  7  1  0
  7  8  1  0
  8  9  1  0
  9 10  1  0
 10 11  1  0
 11 12  1  0
  6  2  1  0
 12  8  1  0
  1 13  1  0
  1 14  1  0
  1 15  1  0
  8 16  1  1
  9 17  1  0
  9 18  1  0
 10 19  1  0
 12 20  1  0
 12 21  1  0
M  END
$$$$
