
     RDKit          3D

 29 30  0  0  0  0  0  0  0  0999 V2000
    4.6756   -0.6662   -0.4435 C   0  0  0  0  0  0  0  0  0  0  0  0
    3.7974    0.3595    0.1630 C   0  0  0  0  0  0  0  0  0  0  0  0
    4.3424    1.3463    0.7177 O   0  0  0  0  0  0  0  0  0  0  0  0
    2.3859    0.2479    0.1283 N   0  0  0  0  0  0  0  0  0  0  0  0
    1.4423   -0.7135   -0.4036 C   0  0  0  0  0  0  0  0  0  0  0  0
    0.4593    0.4233   -0.5535 C   0  0  0  0  0  0  0  0  0  0  0  0
   -0.9026    0.1218   -0.2237 N   0  0  0  0  0  0  0  0  0  0  0  0
   -2.0282    0.5345   -1.0413 C   0  0  0  0  0  0  0  0  0  0  0  0
   -3.2615   -0.0607   -0.4438 C   0  0  2  0  0  0  0  0  0  0  0  0
   -4.1521    0.9758    0.0681 N   0  0  0  0  0  0  0  0  0  0  0  0
   -2.8170   -0.9967    0.6557 C   0  0  0  0  0  0  0  0  0  0  0  0
   -1.4060   -0.5934    0.8928 C   0  0  0  0  0  0  0  0  0  0  0  0
   -0.7813   -0.8680    1.9500 O   0  0  0  0  0  0  0  0  0  0  0  0
    1.2557    1.0205    0.5948 C   0  0  0  0  0  0  0  0  0  0  0  0
    4.7525   -1.5835    0.1587 H   0  0  0  0  0  0  0  0  0  0  0  0
    4.1984   -0.9871   -1.4152 H   0  0  0  0  0  0  0  0  0  0  0  0
    5.6588   -0.2321   -0.7023 H   0  0  0  0  0  0  0  0  0  0  0  0
    1.1426   -1.4631    0.3542 H   0  0  0  0  0  0  0  0  0  0  0  0
    1.7303   -1.1760   -1.3616 H   0  0  0  0  0  0  0  0  0  0  0  0
    0.6133    0.9898   -1.4677 H   0  0  0  0  0  0  0  0  0  0  0  0
   -2.0999    1.6202   -1.1648 H   0  0  0  0  0  0  0  0  0  0  0  0
   -1.9274    0.1056   -2.0798 H   0  0  0  0  0  0  0  0  0  0  0  0
   -3.8555   -0.6521   -1.1787 H   0  0  0  0  0  0  0  0  0  0  0  0
   -5.1220    0.5747    0.0906 H   0  0  0  0  0  0  0  0  0  0  0  0
   -4.1025    1.7916   -0.5591 H   0  0  0  0  0  0  0  0  0  0  0  0
   -2.8291   -2.0477    0.2962 H   0  0  0  0  0  0  0  0  0  0  0  0
   -3.4581   -0.8773    1.5405 H   0  0  0  0  0  0  0  0  0  0  0  0
    1.3577    2.1099    0.5376 H   0  0  0  0  0  0  0  0  0  0  0  0
    0.9310    0.6961    1.6029 H   0  0  0  0  0  0  0  0  0  0  0  0
  1  2  1  0
  2  3  2  0
  2  4  1  0
  4  5  1  0
  5  6  1  0
  6  7  1  0
  7  8  1  0
  8  9  1  0
  9 10  1  0
  9 11  1  0
 11 12  1  0
 12 13  2  0
  6 14  1  0
 14  4  1  0
 12  7  1  0
  1 15  1  0
  1 16  1  0
  1 17  1  0
  5 18  1  0
  5 19  1  0
  6 20  1  0
  8 21  1  0
  8 22  1  0
  9 23  1  6
 10 24  1  0
 10 25  1  0
 11 26  1  0
 11 27  1  0
 14 28  1  0
 14 29  1  0
M  END
$$$$

     RDKit          3D

 29 30  0  0  0  0  0  0  0  0999 V2000
    4.2994    0.2429    1.4587 C   0  0  0  0  0  0  0  0  0  0  0  0
    3.6464    0.1345    0.1398 C   0  0  0  0  0  0  0  0  0  0  0  0
    4.3621    0.0626   -0.8837 O   0  0  0  0  0  0  0  0  0  0  0  0
    2.2578    0.1131    0.0411 N   0  0  0  0  0  0  0  0  0  0  0  0
    1.1667    0.1767    1.0056 C   0  0  0  0  0  0  0  0  0  0  0  0
    0.3400   -0.6287    0.0307 C   0  0  0  0  0  0  0  0  0  0  0  0
   -1.0433   -0.2606    0.0503 N   0  0  0  0  0  0  0  0  0  0  0  0
   -2.1779   -1.1781    0.1710 C   0  0  0  0  0  0  0  0  0  0  0  0
   -3.1656   -0.5300   -0.7760 C   0  0  2  0  0  0  0  0  0  0  0  0
   -2.6362   -0.6072   -2.1058 N   0  0  0  0  0  0  0  0  0  0  0  0
   -3.0948    0.9201   -0.3079 C   0  0  0  0  0  0  0  0  0  0  0  0
   -1.6163    1.0367   -0.0392 C   0  0  0  0  0  0  0  0  0  0  0  0
   -1.0203    2.1365    0.0806 O   0  0  0  0  0  0  0  0  0  0  0  0
    1.2153    0.0234   -0.9860 C   0  0  0  0  0  0  0  0  0  0  0  0
    3.5448    0.2149    2.2667 H   0  0  0  0  0  0  0  0  0  0  0  0
    5.0796   -0.5523    1.5832 H   0  0  0  0  0  0  0  0  0  0  0  0
    4.7841    1.2571    1.5013 H   0  0  0  0  0  0  0  0  0  0  0  0
    0.8028    1.1965    1.1875 H   0  0  0  0  0  0  0  0  0  0  0  0
    1.3840   -0.4063    1.9307 H   0  0  0  0  0  0  0  0  0  0  0  0
    0.5091   -1.7195    0.1149 H   0  0  0  0  0  0  0  0  0  0  0  0
   -1.9102   -2.2025   -0.1438 H   0  0  0  0  0  0  0  0  0  0  0  0
   -2.5679   -1.1391    1.1977 H   0  0  0  0  0  0  0  0  0  0  0  0
   -4.1765   -0.9493   -0.6674 H   0  0  0  0  0  0  0  0  0  0  0  0
   -3.3934   -0.6156   -2.8018 H   0  0  0  0  0  0  0  0  0  0  0  0
   -1.9990    0.2066   -2.2572 H   0  0  0  0  0  0  0  0  0  0  0  0
   -3.6822    1.0765    0.6192 H   0  0  0  0  0  0  0  0  0  0  0  0
   -3.3820    1.5809   -1.1315 H   0  0  0  0  0  0  0  0  0  0  0  0
    1.5331   -0.6137   -1.8324 H   0  0  0  0  0  0  0  0  0  0  0  0
    0.9406    1.0238   -1.3196 H   0  0  0  0  0  0  0  0  0  0  0  0
  1  2  1  0
  2  3  2  0
  2  4  1  0
  4  5  1  0
  5  6  1  0
  6  7  1  0
  7  8  1  0
  8  9  1  0
  9 10  1  0
  9 11  1  0
 11 12  1  0
 12 13  2  0
  6 14  1  0
 14  4  1  0
 12  7  1  0
  1 15  1  0
  1 16  1  0
  1 17  1  0
  5 18  1  0
  5 19  1  0
  6 20  1  0
  8 21  1  0
  8 22  1  0
  9 23  1  6
 10 24  1  0
 10 25  1  0
 11 26  1  0
 11 27  1  0
 14 28  1  0
 14 29  1  0
M  END
$$$$

     RDKit          3D

 29 30  0  0  0  0  0  0  0  0999 V2000
    4.7457   -0.5596    0.0575 C   0  0  0  0  0  0  0  0  0  0  0  0
    3.7654    0.5359   -0.1616 C   0  0  0  0  0  0  0  0  0  0  0  0
    4.1929    1.6607   -0.4609 O   0  0  0  0  0  0  0  0  0  0  0  0
    2.3707    0.3048   -0.0324 N   0  0  0  0  0  0  0  0  0  0  0  0
    1.1812    1.1026   -0.1673 C   0  0  0  0  0  0  0  0  0  0  0  0
    0.4317    0.1212    0.6812 C   0  0  0  0  0  0  0  0  0  0  0  0
   -0.9102   -0.1844    0.2522 N   0  0  0  0  0  0  0  0  0  0  0  0
   -2.1247   -0.1084    1.0836 C   0  0  0  0  0  0  0  0  0  0  0  0
   -3.0947    0.5207    0.1105 C   0  0  2  0  0  0  0  0  0  0  0  0
   -4.4713    0.3335    0.5264 N   0  0  0  0  0  0  0  0  0  0  0  0
   -2.8528   -0.2823   -1.1515 C   0  0  0  0  0  0  0  0  0  0  0  0
   -1.3893   -0.6160   -1.0150 C   0  0  0  0  0  0  0  0  0  0  0  0
   -0.6649   -1.1927   -1.8782 O   0  0  0  0  0  0  0  0  0  0  0  0
    1.5141   -0.8294    0.2914 C   0  0  0  0  0  0  0  0  0  0  0  0
    4.2826   -1.3546    0.6679 H   0  0  0  0  0  0  0  0  0  0  0  0
    5.0480   -0.9576   -0.9382 H   0  0  0  0  0  0  0  0  0  0  0  0
    5.6214   -0.1203    0.5833 H   0  0  0  0  0  0  0  0  0  0  0  0
    0.8590    1.1704   -1.2219 H   0  0  0  0  0  0  0  0  0  0  0  0
    1.2980    2.1227    0.2434 H   0  0  0  0  0  0  0  0  0  0  0  0
    0.4422    0.4352    1.7487 H   0  0  0  0  0  0  0  0  0  0  0  0
   -2.4244   -1.1332    1.2961 H   0  0  0  0  0  0  0  0  0  0  0  0
   -1.9510    0.5186    1.9734 H   0  0  0  0  0  0  0  0  0  0  0  0
   -2.8424    1.5901   -0.0289 H   0  0  0  0  0  0  0  0  0  0  0  0
   -4.7985   -0.5797    0.1284 H   0  0  0  0  0  0  0  0  0  0  0  0
   -5.0515    1.1152    0.1729 H   0  0  0  0  0  0  0  0  0  0  0  0
   -2.9021    0.3918   -2.0515 H   0  0  0  0  0  0  0  0  0  0  0  0
   -3.4776   -1.1665   -1.2327 H   0  0  0  0  0  0  0  0  0  0  0  0
    1.2805   -1.3885   -0.6198 H   0  0  0  0  0  0  0  0  0  0  0  0
    1.9223   -1.4501    1.1272 H   0  0  0  0  0  0  0  0  0  0  0  0
  1  2  1  0
  2  3  2  0
  2  4  1  0
  4  5  1  0
  5  6  1  0
  6  7  1  0
  7  8  1  0
  8  9  1  0
  9 10  1  0
  9 11  1  0
 11 12  1  0
 12 13  2  0
  6 14  1  0
 14  4  1  0
 12  7  1  0
  1 15  1  0
  1 16  1  0
  1 17  1  0
  5 18  1  0
  5 19  1  0
  6 20  1  0
  8 21  1  0
  8 22  1  0
  9 23  1  6
 10 24  1  0
 10 25  1  0
 11 26  1  0
 11 27  1  0
 14 28  1  0
 14 29  1  0
M  END
$$$$

     RDKit          3D

 29 30  0  0  0  0  0  0  0  0999 V2000
    4.4258   -0.4810    1.3499 C   0  0  0  0  0  0  0  0  0  0  0  0
    3.7143    0.5857    0.5612 C   0  0  0  0  0  0  0  0  0  0  0  0
    4.3008    1.6119    0.1727 O   0  0  0  0  0  0  0  0  0  0  0  0
    2.3391    0.3591    0.2842 N   0  0  0  0  0  0  0  0  0  0  0  0
    1.3446   -0.6657    0.5531 C   0  0  0  0  0  0  0  0  0  0  0  0
    0.5415   -0.1271   -0.6028 C   0  0  0  0  0  0  0  0  0  0  0  0
   -0.8494    0.1336   -0.3099 N   0  0  0  0  0  0  0  0  0  0  0  0
   -1.9443   -0.2046   -1.1938 C   0  0  0  0  0  0  0  0  0  0  0  0
   -3.0224   -0.5917   -0.2071 C   0  0  2  0  0  0  0  0  0  0  0  0
   -4.3298   -0.6545   -0.8043 N   0  0  0  0  0  0  0  0  0  0  0  0
   -2.9189    0.5691    0.7886 C   0  0  0  0  0  0  0  0  0  0  0  0
   -1.4407    0.7389    0.8284 C   0  0  0  0  0  0  0  0  0  0  0  0
   -0.8310    1.3315    1.7407 O   0  0  0  0  0  0  0  0  0  0  0  0
    1.3408    1.1497   -0.4375 C   0  0  0  0  0  0  0  0  0  0  0  0
    4.8199   -1.2754    0.6910 H   0  0  0  0  0  0  0  0  0  0  0  0
    5.2207    0.0544    1.9097 H   0  0  0  0  0  0  0  0  0  0  0  0
    3.7148   -0.8643    2.0837 H   0  0  0  0  0  0  0  0  0  0  0  0
    1.7689   -1.6621    0.2995 H   0  0  0  0  0  0  0  0  0  0  0  0
    0.8728   -0.6209    1.5351 H   0  0  0  0  0  0  0  0  0  0  0  0
    0.7448   -0.6097   -1.5570 H   0  0  0  0  0  0  0  0  0  0  0  0
   -1.6924   -1.0313   -1.8850 H   0  0  0  0  0  0  0  0  0  0  0  0
   -2.2871    0.7087   -1.7200 H   0  0  0  0  0  0  0  0  0  0  0  0
   -2.7525   -1.5006    0.3645 H   0  0  0  0  0  0  0  0  0  0  0  0
   -4.7189   -1.5962   -0.6078 H   0  0  0  0  0  0  0  0  0  0  0  0
   -4.2340   -0.5527   -1.8232 H   0  0  0  0  0  0  0  0  0  0  0  0
   -3.3676    1.4846    0.3852 H   0  0  0  0  0  0  0  0  0  0  0  0
   -3.3354    0.2245    1.7354 H   0  0  0  0  0  0  0  0  0  0  0  0
    0.8510    1.9130    0.1825 H   0  0  0  0  0  0  0  0  0  0  0  0
    1.7247    1.5729   -1.3909 H   0  0  0  0  0  0  0  0  0  0  0  0
  1  2  1  0
  2  3  2  0
  2  4  1  0
  4  5  1  0
  5  6  1  0
  6  7  1  0
  7  8  1  0
  8  9  1  0
  9 10  1  0
  9 11  1  0
 11 12  1  0
 12 13  2  0
  6 14  1  0
 14  4  1  0
 12  7  1  0
  1 15  1  0
  1 16  1  0
  1 17  1  0
  5 18  1  0
  5 19  1  0
  6 20  1  0
  8 21  1  0
  8 22  1  0
  9 23  1  1
 10 24  1  0
 10 25  1  0
 11 26  1  0
 11 27  1  0
 14 28  1  0
 14 29  1  0
M  END
$$$$

     RDKit          3D

 29 30  0  0  0  0  0  0  0  0999 V2000
    4.3959   -0.2419    0.6427 C   0  0  0  0  0  0  0  0  0  0  0  0
    3.6209    0.0243   -0.6053 C   0  0  0  0  0  0  0  0  0  0  0  0
    4.2767    0.1772   -1.6768 O   0  0  0  0  0  0  0  0  0  0  0  0
    2.2212    0.0992   -0.5765 N   0  0  0  0  0  0  0  0  0  0  0  0
    1.1724    0.3291   -1.5322 C   0  0  0  0  0  0  0  0  0  0  0  0
    0.3128   -0.5972   -0.6626 C   0  0  0  0  0  0  0  0  0  0  0  0
   -1.0649   -0.2495   -0.6062 N   0  0  0  0  0  0  0  0  0  0  0  0
   -1.6061    1.0828   -0.3745 C   0  0  0  0  0  0  0  0  0  0  0  0
   -2.9308    0.7542    0.2823 C   0  0  2  0  0  0  0  0  0  0  0  0
   -2.7396    0.2285    1.6012 N   0  0  0  0  0  0  0  0  0  0  0  0
   -3.4071   -0.4056   -0.6047 C   0  0  0  0  0  0  0  0  0  0  0  0
   -2.1411   -1.1593   -0.7695 C   0  0  0  0  0  0  0  0  0  0  0  0
   -2.0338   -2.3796   -1.0096 O   0  0  0  0  0  0  0  0  0  0  0  0
    1.1991   -0.0209    0.4278 C   0  0  0  0  0  0  0  0  0  0  0  0
    5.4518   -0.4687    0.4161 H   0  0  0  0  0  0  0  0  0  0  0  0
    3.8692   -1.0292    1.1977 H   0  0  0  0  0  0  0  0  0  0  0  0
    4.3896    0.6903    1.2691 H   0  0  0  0  0  0  0  0  0  0  0  0
    1.3459   -0.0602   -2.5518 H   0  0  0  0  0  0  0  0  0  0  0  0
    0.8158    1.3771   -1.4699 H   0  0  0  0  0  0  0  0  0  0  0  0
    0.5450   -1.6441   -0.8457 H   0  0  0  0  0  0  0  0  0  0  0  0
   -1.8486    1.5639   -1.3668 H   0  0  0  0  0  0  0  0  0  0  0  0
   -0.9709    1.7130    0.2439 H   0  0  0  0  0  0  0  0  0  0  0  0
   -3.6429    1.5974    0.2398 H   0  0  0  0  0  0  0  0  0  0  0  0
   -3.6210   -0.2178    1.9172 H   0  0  0  0  0  0  0  0  0  0  0  0
   -1.9942   -0.4768    1.5715 H   0  0  0  0  0  0  0  0  0  0  0  0
   -4.1993   -0.9878   -0.1256 H   0  0  0  0  0  0  0  0  0  0  0  0
   -3.7019    0.0198   -1.5845 H   0  0  0  0  0  0  0  0  0  0  0  0
    1.4141   -0.7151    1.2605 H   0  0  0  0  0  0  0  0  0  0  0  0
    0.8719    0.9969    0.7426 H   0  0  0  0  0  0  0  0  0  0  0  0
  1  2  1  0
  2  3  2  0
  2  4  1  0
  4  5  1  0
  5  6  1  0
  6  7  1  0
  7  8  1  0
  8  9  1  0
  9 10  1  0
  9 11  1  0
 11 12  1  0
 12 13  2  0
  6 14  1  0
 14  4  1  0
 12  7  1  0
  1 15  1  0
  1 16  1  0
  1 17  1  0
  5 18  1  0
  5 19  1  0
  6 20  1  0
  8 21  1  0
  8 22  1  0
  9 23  1  1
 10 24  1  0
 10 25  1  0
 11 26  1  0
 11 27  1  0
 14 28  1  0
 14 29  1  0
M  END
$$$$

     RDKit          3D

 29 30  0  0  0  0  0  0  0  0999 V2000
    4.5599    0.1811    0.8138 C   0  0  0  0  0  0  0  0  0  0  0  0
    3.5267   -0.8832    0.8648 C   0  0  0  0  0  0  0  0  0  0  0  0
    3.8933   -2.0139    1.2685 O   0  0  0  0  0  0  0  0  0  0  0  0
    2.1892   -0.6917    0.4921 N   0  0  0  0  0  0  0  0  0  0  0  0
    0.9964   -1.4927    0.4314 C   0  0  0  0  0  0  0  0  0  0  0  0
    0.5247   -0.6148   -0.6864 C   0  0  0  0  0  0  0  0  0  0  0  0
   -0.8559   -0.2312   -0.6896 N   0  0  0  0  0  0  0  0  0  0  0  0
   -1.6475    0.2051    0.4371 C   0  0  0  0  0  0  0  0  0  0  0  0
   -2.9368    0.6560   -0.1678 C   0  0  2  0  0  0  0  0  0  0  0  0
   -4.0756    0.4372    0.7020 N   0  0  0  0  0  0  0  0  0  0  0  0
   -3.0737   -0.1929   -1.3969 C   0  0  0  0  0  0  0  0  0  0  0  0
   -1.6665   -0.2410   -1.8717 C   0  0  0  0  0  0  0  0  0  0  0  0
   -1.2066   -0.2828   -3.0374 O   0  0  0  0  0  0  0  0  0  0  0  0
    1.4093    0.4173   -0.0042 C   0  0  0  0  0  0  0  0  0  0  0  0
    4.6313    0.6177    1.8319 H   0  0  0  0  0  0  0  0  0  0  0  0
    5.5016   -0.2866    0.4832 H   0  0  0  0  0  0  0  0  0  0  0  0
    4.2655    0.9812    0.0755 H   0  0  0  0  0  0  0  0  0  0  0  0
    0.4417   -1.4232    1.3759 H   0  0  0  0  0  0  0  0  0  0  0  0
    1.1427   -2.5571    0.1630 H   0  0  0  0  0  0  0  0  0  0  0  0
    0.9371   -0.9307   -1.6674 H   0  0  0  0  0  0  0  0  0  0  0  0
   -1.8699   -0.7004    1.0568 H   0  0  0  0  0  0  0  0  0  0  0  0
   -1.1525    0.9736    1.0489 H   0  0  0  0  0  0  0  0  0  0  0  0
   -2.9481    1.7241   -0.4575 H   0  0  0  0  0  0  0  0  0  0  0  0
   -4.5560   -0.4679    0.5023 H   0  0  0  0  0  0  0  0  0  0  0  0
   -3.7168    0.4724    1.6887 H   0  0  0  0  0  0  0  0  0  0  0  0
   -3.7282    0.2268   -2.1610 H   0  0  0  0  0  0  0  0  0  0  0  0
   -3.3592   -1.2453   -1.1208 H   0  0  0  0  0  0  0  0  0  0  0  0
    0.8361    0.9723    0.7385 H   0  0  0  0  0  0  0  0  0  0  0  0
    1.9379    1.0876   -0.7138 H   0  0  0  0  0  0  0  0  0  0  0  0
  1  2  1  0
  2  3  2  0
  2  4  1  0
  4  5  1  0
  5  6  1  0
  6  7  1  0
  7  8  1  0
  8  9  1  0
  9 10  1  0
  9 11  1  0
 11 12  1  0
 12 13  2  0
  6 14  1  0
 14  4  1  0
 12  7  1  0
  1 15  1  0
  1 16  1  0
  1 17  1  0
  5 18  1  0
  5 19  1  0
  6 20  1  0
  8 21  1  0
  8 22  1  0
  9 23  1  6
 10 24  1  0
 10 25  1  0
 11 26  1  0
 11 27  1  0
 14 28  1  0
 14 29  1  0
M  END
$$$$

     RDKit          3D

 29 30  0  0  0  0  0  0  0  0999 V2000
    4.6183    0.5098    0.5306 C   0  0  0  0  0  0  0  0  0  0  0  0
    3.5943    0.3959   -0.5572 C   0  0  0  0  0  0  0  0  0  0  0  0
    3.9601    0.6117   -1.7356 O   0  0  0  0  0  0  0  0  0  0  0  0
    2.2533    0.0573   -0.2874 N   0  0  0  0  0  0  0  0  0  0  0  0
    1.0839   -0.1185   -1.1208 C   0  0  0  0  0  0  0  0  0  0  0  0
    0.3483   -0.8104   -0.0223 C   0  0  0  0  0  0  0  0  0  0  0  0
   -0.9750   -0.3981    0.2708 N   0  0  0  0  0  0  0  0  0  0  0  0
   -2.1082   -1.2886    0.4247 C   0  0  0  0  0  0  0  0  0  0  0  0
   -3.3481   -0.4386    0.2449 C   0  0  2  0  0  0  0  0  0  0  0  0
   -3.5984   -0.2662   -1.1823 N   0  0  0  0  0  0  0  0  0  0  0  0
   -2.9201    0.9048    0.7797 C   0  0  0  0  0  0  0  0  0  0  0  0
   -1.4674    0.9335    0.4720 C   0  0  0  0  0  0  0  0  0  0  0  0
   -0.8182    2.0074    0.4110 O   0  0  0  0  0  0  0  0  0  0  0  0
    1.4321   -0.2628    0.8871 C   0  0  0  0  0  0  0  0  0  0  0  0
    5.1640    1.4583    0.3463 H   0  0  0  0  0  0  0  0  0  0  0  0
    5.3518   -0.2977    0.4907 H   0  0  0  0  0  0  0  0  0  0  0  0
    4.0923    0.5845    1.5038 H   0  0  0  0  0  0  0  0  0  0  0  0
    1.3389   -0.7789   -1.9855 H   0  0  0  0  0  0  0  0  0  0  0  0
    0.7183    0.8363   -1.4712 H   0  0  0  0  0  0  0  0  0  0  0  0
    0.4534   -1.9085   -0.1289 H   0  0  0  0  0  0  0  0  0  0  0  0
   -2.1412   -2.0733   -0.3655 H   0  0  0  0  0  0  0  0  0  0  0  0
   -2.1033   -1.8023    1.4079 H   0  0  0  0  0  0  0  0  0  0  0  0
   -4.2268   -0.8429    0.7410 H   0  0  0  0  0  0  0  0  0  0  0  0
   -2.7829    0.3200   -1.5341 H   0  0  0  0  0  0  0  0  0  0  0  0
   -4.4212    0.4054   -1.2334 H   0  0  0  0  0  0  0  0  0  0  0  0
   -3.4876    1.6777    0.2158 H   0  0  0  0  0  0  0  0  0  0  0  0
   -3.1397    1.0465    1.8444 H   0  0  0  0  0  0  0  0  0  0  0  0
    1.1509    0.5955    1.4994 H   0  0  0  0  0  0  0  0  0  0  0  0
    1.9780   -1.0579    1.4679 H   0  0  0  0  0  0  0  0  0  0  0  0
  1  2  1  0
  2  3  2  0
  2  4  1  0
  4  5  1  0
  5  6  1  0
  6  7  1  0
  7  8  1  0
  8  9  1  0
  9 10  1  0
  9 11  1  0
 11 12  1  0
 12 13  2  0
  6 14  1  0
 14  4  1  0
 12  7  1  0
  1 15  1  0
  1 16  1  0
  1 17  1  0
  5 18  1  0
  5 19  1  0
  6 20  1  0
  8 21  1  0
  8 22  1  0
  9 23  1  1
 10 24  1  0
 10 25  1  0
 11 26  1  0
 11 27  1  0
 14 28  1  0
 14 29  1  0
M  END
$$$$

     RDKit          3D

 29 30  0  0  0  0  0  0  0  0999 V2000
    4.5241    0.1270   -0.5263 C   0  0  0  0  0  0  0  0  0  0  0  0
    3.7505   -0.2756    0.6729 C   0  0  0  0  0  0  0  0  0  0  0  0
    4.2809   -0.7274    1.7167 O   0  0  0  0  0  0  0  0  0  0  0  0
    2.3379   -0.1312    0.6075 N   0  0  0  0  0  0  0  0  0  0  0  0
    1.3400    0.3242   -0.3446 C   0  0  0  0  0  0  0  0  0  0  0  0
    0.3945   -0.6525    0.2605 C   0  0  0  0  0  0  0  0  0  0  0  0
   -0.9674   -0.2151    0.4409 N   0  0  0  0  0  0  0  0  0  0  0  0
   -2.0982   -1.0624    0.1157 C   0  0  0  0  0  0  0  0  0  0  0  0
   -3.3349   -0.2359    0.1876 C   0  0  2  0  0  0  0  0  0  0  0  0
   -3.7751    0.1276   -1.1452 N   0  0  0  0  0  0  0  0  0  0  0  0
   -2.9638    0.9352    1.0313 C   0  0  0  0  0  0  0  0  0  0  0  0
   -1.4856    0.9959    0.9196 C   0  0  0  0  0  0  0  0  0  0  0  0
   -0.7563    1.9991    1.2117 O   0  0  0  0  0  0  0  0  0  0  0  0
    1.2136   -0.3926    1.5205 C   0  0  0  0  0  0  0  0  0  0  0  0
    4.0157   -0.3516   -1.4116 H   0  0  0  0  0  0  0  0  0  0  0  0
    4.4063    1.2426   -0.6284 H   0  0  0  0  0  0  0  0  0  0  0  0
    5.5818   -0.1550   -0.4599 H   0  0  0  0  0  0  0  0  0  0  0  0
    1.1129    1.3950   -0.1394 H   0  0  0  0  0  0  0  0  0  0  0  0
    1.6297    0.1663   -1.4011 H   0  0  0  0  0  0  0  0  0  0  0  0
    0.5310   -1.6622   -0.1367 H   0  0  0  0  0  0  0  0  0  0  0  0
   -1.9094   -1.4687   -0.9036 H   0  0  0  0  0  0  0  0  0  0  0  0
   -2.0908   -1.9188    0.8226 H   0  0  0  0  0  0  0  0  0  0  0  0
   -4.1251   -0.8688    0.6880 H   0  0  0  0  0  0  0  0  0  0  0  0
   -4.0569    1.1195   -1.2276 H   0  0  0  0  0  0  0  0  0  0  0  0
   -3.1527   -0.2112   -1.8950 H   0  0  0  0  0  0  0  0  0  0  0  0
   -3.4465    1.8704    0.6803 H   0  0  0  0  0  0  0  0  0  0  0  0
   -3.2362    0.7090    2.0961 H   0  0  0  0  0  0  0  0  0  0  0  0
    0.9261    0.5681    1.9923 H   0  0  0  0  0  0  0  0  0  0  0  0
    1.3541   -1.2507    2.1789 H   0  0  0  0  0  0  0  0  0  0  0  0
  1  2  1  0
  2  3  2  0
  2  4  1  0
  4  5  1  0
  5  6  1  0
  6  7  1  0
  7  8  1  0
  8  9  1  0
  9 10  1  0
  9 11  1  0
 11 12  1  0
 12 13  2  0
  6 14  1  0
 14  4  1  0
 12  7  1  0
  1 15  1  0
  1 16  1  0
  1 17  1  0
  5 18  1  0
  5 19  1  0
  6 20  1  0
  8 21  1  0
  8 22  1  0
  9 23  1  1
 10 24  1  0
 10 25  1  0
 11 26  1  0
 11 27  1  0
 14 28  1  0
 14 29  1  0
M  END
$$$$
