
     RDKit          3D

 22 23  0  0  0  0  0  0  0  0999 V2000
    3.5430   -0.0127   -0.0237 N   0  0  0  0  0  0  0  0  0  0  0  0
    2.5641   -0.6828   -0.8564 C   0  0  0  0  0  0  0  0  0  0  0  0
    1.6730   -1.5900    0.0006 C   0  0  0  0  0  0  0  0  0  0  0  0
    0.8338   -0.5704    1.2267 S   0  0  0  0  0  0  0  0  0  0  0  0
   -0.3004    0.5148    0.3818 C   0  0  0  0  0  0  0  0  0  0  0  0
    0.1401    1.7093   -0.0265 N   0  0  0  0  0  0  0  0  0  0  0  0
   -0.6745    2.5842   -0.6734 C   0  0  0  0  0  0  0  0  0  0  0  0
   -1.9446    2.2220   -0.8972 N   0  0  0  0  0  0  0  0  0  0  0  0
   -2.4221    1.0152   -0.4946 C   0  0  0  0  0  0  0  0  0  0  0  0
   -1.6054    0.1185    0.1628 C   0  0  0  0  0  0  0  0  0  0  0  0
   -2.2973   -0.9275    0.4271 N   0  0  0  0  0  0  0  0  0  0  0  0
   -3.6412   -0.7589   -0.0607 C   0  0  0  0  0  0  0  0  0  0  0  0
   -3.6100    0.5538   -0.6468 N   0  0  0  0  0  0  0  0  0  0  0  0
    4.4696   -0.5005   -0.0197 H   0  0  0  0  0  0  0  0  0  0  0  0
    3.7030    0.9446   -0.4475 H   0  0  0  0  0  0  0  0  0  0  0  0
    3.0743   -1.2995   -1.6131 H   0  0  0  0  0  0  0  0  0  0  0  0
    1.8926    0.0205   -1.3811 H   0  0  0  0  0  0  0  0  0  0  0  0
    2.2425   -2.4398    0.4277 H   0  0  0  0  0  0  0  0  0  0  0  0
    0.8848   -2.0583   -0.6501 H   0  0  0  0  0  0  0  0  0  0  0  0
   -0.3318    3.5587   -1.0123 H   0  0  0  0  0  0  0  0  0  0  0  0
   -4.4076   -0.8500    0.7372 H   0  0  0  0  0  0  0  0  0  0  0  0
   -3.7861   -1.5513   -0.8298 H   0  0  0  0  0  0  0  0  0  0  0  0
  1  2  1  0
  2  3  1  0
  3  4  1  0
  4  5  1  0
  5  6  2  0
  6  7  1  0
  7  8  2  0
  8  9  1  0
  9 10  1  0
 10 11  2  0
 11 12  1  0
 12 13  1  0
 10  5  1  0
 13  9  2  0
  1 14  1  0
  1 15  1  0
  2 16  1  0
  2 17  1  0
  3 18  1  0
  3 19  1  0
  7 20  1  0
 12 21  1  0
 12 22  1  0
M  END
$$$$

     RDKit          3D

 22 23  0  0  0  0  0  0  0  0999 V2000
   -3.2979   -0.0747    1.1075 N   0  0  0  0  0  0  0  0  0  0  0  0
   -3.0093    0.0856   -0.3029 C   0  0  0  0  0  0  0  0  0  0  0  0
   -2.2952   -1.1169   -0.8703 C   0  0  0  0  0  0  0  0  0  0  0  0
   -0.7167   -1.4245   -0.0452 S   0  0  0  0  0  0  0  0  0  0  0  0
    0.4545   -0.1181   -0.3590 C   0  0  0  0  0  0  0  0  0  0  0  0
    0.1772    0.9456   -1.1155 N   0  0  0  0  0  0  0  0  0  0  0  0
    1.1130    1.8956   -1.3093 C   0  0  0  0  0  0  0  0  0  0  0  0
    2.3347    1.8225   -0.7676 N   0  0  0  0  0  0  0  0  0  0  0  0
    2.6764    0.7520    0.0192 C   0  0  0  0  0  0  0  0  0  0  0  0
    1.7132   -0.2136    0.2113 C   0  0  0  0  0  0  0  0  0  0  0  0
    2.2133   -1.1503    0.9808 N   0  0  0  0  0  0  0  0  0  0  0  0
    3.5690   -0.7846    1.3118 C   0  0  0  0  0  0  0  0  0  0  0  0
    3.7639    0.4519    0.6427 N   0  0  0  0  0  0  0  0  0  0  0  0
   -3.3895    0.8748    1.5722 H   0  0  0  0  0  0  0  0  0  0  0  0
   -2.5351   -0.6161    1.5924 H   0  0  0  0  0  0  0  0  0  0  0  0
   -2.4551    1.0057   -0.4865 H   0  0  0  0  0  0  0  0  0  0  0  0
   -3.9752    0.1689   -0.8522 H   0  0  0  0  0  0  0  0  0  0  0  0
   -2.0819   -0.9208   -1.9244 H   0  0  0  0  0  0  0  0  0  0  0  0
   -2.9443   -2.0096   -0.8150 H   0  0  0  0  0  0  0  0  0  0  0  0
    0.8264    2.7370   -1.9354 H   0  0  0  0  0  0  0  0  0  0  0  0
    3.6279   -0.7231    2.4159 H   0  0  0  0  0  0  0  0  0  0  0  0
    4.2306   -1.5873    0.9294 H   0  0  0  0  0  0  0  0  0  0  0  0
  1  2  1  0
  2  3  1  0
  3  4  1  0
  4  5  1  0
  5  6  2  0
  6  7  1  0
  7  8  2  0
  8  9  1  0
  9 10  1  0
 10 11  2  0
 11 12  1  0
 12 13  1  0
 10  5  1  0
 13  9  2  0
  1 14  1  0
  1 15  1  0
  2 16  1  0
  2 17  1  0
  3 18  1  0
  3 19  1  0
  7 20  1  0
 12 21  1  0
 12 22  1  0
M  END
$$$$

     RDKit          3D

 22 23  0  0  0  0  0  0  0  0999 V2000
    4.0720   -0.4605   -0.5840 N   0  0  0  0  0  0  0  0  0  0  0  0
    2.6637   -0.7808   -0.5028 C   0  0  0  0  0  0  0  0  0  0  0  0
    2.2452   -0.4839    0.9422 C   0  0  0  0  0  0  0  0  0  0  0  0
    0.5075   -0.8761    1.0814 S   0  0  0  0  0  0  0  0  0  0  0  0
   -0.5132    0.2271    0.1344 C   0  0  0  0  0  0  0  0  0  0  0  0
   -0.0697    1.2535   -0.5869 N   0  0  0  0  0  0  0  0  0  0  0  0
   -0.9010    2.0680   -1.2999 C   0  0  0  0  0  0  0  0  0  0  0  0
   -2.2183    1.8178   -1.2683 N   0  0  0  0  0  0  0  0  0  0  0  0
   -2.7508    0.7783   -0.5471 C   0  0  0  0  0  0  0  0  0  0  0  0
   -1.9021   -0.0247    0.1595 C   0  0  0  0  0  0  0  0  0  0  0  0
   -2.5825   -0.9336    0.7651 N   0  0  0  0  0  0  0  0  0  0  0  0
   -3.9712   -0.7310    0.4463 C   0  0  0  0  0  0  0  0  0  0  0  0
   -3.9823    0.4162   -0.4203 N   0  0  0  0  0  0  0  0  0  0  0  0
    4.2839    0.5138   -0.3210 H   0  0  0  0  0  0  0  0  0  0  0  0
    4.6895   -1.1855   -0.1969 H   0  0  0  0  0  0  0  0  0  0  0  0
    2.4947   -1.8484   -0.7627 H   0  0  0  0  0  0  0  0  0  0  0  0
    2.1166   -0.0796   -1.1716 H   0  0  0  0  0  0  0  0  0  0  0  0
    2.8955   -1.0071    1.6342 H   0  0  0  0  0  0  0  0  0  0  0  0
    2.3576    0.6348    1.0531 H   0  0  0  0  0  0  0  0  0  0  0  0
   -0.5149    2.9014   -1.8813 H   0  0  0  0  0  0  0  0  0  0  0  0
   -4.6041   -0.5436    1.3450 H   0  0  0  0  0  0  0  0  0  0  0  0
   -4.3160   -1.6561   -0.0690 H   0  0  0  0  0  0  0  0  0  0  0  0
  1  2  1  0
  2  3  1  0
  3  4  1  0
  4  5  1  0
  5  6  2  0
  6  7  1  0
  7  8  2  0
  8  9  1  0
  9 10  1  0
 10 11  2  0
 11 12  1  0
 12 13  1  0
 10  5  1  0
 13  9  2  0
  1 14  1  0
  1 15  1  0
  2 16  1  0
  2 17  1  0
  3 18  1  0
  3 19  1  0
  7 20  1  0
 12 21  1  0
 12 22  1  0
M  END
$$$$

     RDKit          3D

 22 23  0  0  0  0  0  0  0  0999 V2000
    4.1490    0.3547    0.2043 N   0  0  0  0  0  0  0  0  0  0  0  0
    2.7959   -0.2260    0.1949 C   0  0  0  0  0  0  0  0  0  0  0  0
    2.1613    0.0295   -1.1388 C   0  0  0  0  0  0  0  0  0  0  0  0
    0.5169   -0.6760   -1.1935 S   0  0  0  0  0  0  0  0  0  0  0  0
   -0.6018    0.1606   -0.0806 C   0  0  0  0  0  0  0  0  0  0  0  0
   -0.2096    1.1908    0.6835 N   0  0  0  0  0  0  0  0  0  0  0  0
   -1.0974    1.7868    1.5019 C   0  0  0  0  0  0  0  0  0  0  0  0
   -2.3615    1.3359    1.5369 N   0  0  0  0  0  0  0  0  0  0  0  0
   -2.8078    0.2928    0.7797 C   0  0  0  0  0  0  0  0  0  0  0  0
   -1.9089   -0.3248   -0.0614 C   0  0  0  0  0  0  0  0  0  0  0  0
   -2.5192   -1.2720   -0.6826 N   0  0  0  0  0  0  0  0  0  0  0  0
   -3.9010   -1.3257   -0.2605 C   0  0  0  0  0  0  0  0  0  0  0  0
   -3.9790   -0.2517    0.6974 N   0  0  0  0  0  0  0  0  0  0  0  0
    4.7120   -0.1567    0.9463 H   0  0  0  0  0  0  0  0  0  0  0  0
    4.6121    0.1813   -0.7386 H   0  0  0  0  0  0  0  0  0  0  0  0
    2.1879    0.2509    0.9813 H   0  0  0  0  0  0  0  0  0  0  0  0
    2.8400   -1.3185    0.3918 H   0  0  0  0  0  0  0  0  0  0  0  0
    2.7789   -0.3765   -1.9690 H   0  0  0  0  0  0  0  0  0  0  0  0
    2.0719    1.1236   -1.3448 H   0  0  0  0  0  0  0  0  0  0  0  0
   -0.7499    2.6174    2.1062 H   0  0  0  0  0  0  0  0  0  0  0  0
   -4.5295   -1.0886   -1.1458 H   0  0  0  0  0  0  0  0  0  0  0  0
   -4.1602   -2.3080    0.1931 H   0  0  0  0  0  0  0  0  0  0  0  0
  1  2  1  0
  2  3  1  0
  3  4  1  0
  4  5  1  0
  5  6  2  0
  6  7  1  0
  7  8  2  0
  8  9  1  0
  9 10  1  0
 10 11  2  0
 11 12  1  0
 12 13  1  0
 10  5  1  0
 13  9  2  0
  1 14  1  0
  1 15  1  0
  2 16  1  0
  2 17  1  0
  3 18  1  0
  3 19  1  0
  7 20  1  0
 12 21  1  0
 12 22  1  0
M  END
$$$$

     RDKit          3D

 22 23  0  0  0  0  0  0  0  0999 V2000
   -3.2077    0.5082   -0.8201 N   0  0  0  0  0  0  0  0  0  0  0  0
   -2.8366   -0.6773   -0.0615 C   0  0  0  0  0  0  0  0  0  0  0  0
   -2.3233   -0.2903    1.3207 C   0  0  0  0  0  0  0  0  0  0  0  0
   -0.8844    0.7652    1.1299 S   0  0  0  0  0  0  0  0  0  0  0  0
    0.4989   -0.0985    0.4233 C   0  0  0  0  0  0  0  0  0  0  0  0
    0.4487   -1.3982    0.0891 N   0  0  0  0  0  0  0  0  0  0  0  0
    1.5030   -2.0568   -0.4543 C   0  0  0  0  0  0  0  0  0  0  0  0
    2.6451   -1.4270   -0.6801 N   0  0  0  0  0  0  0  0  0  0  0  0
    2.7778   -0.1163   -0.3722 C   0  0  0  0  0  0  0  0  0  0  0  0
    1.7139    0.5483    0.1761 C   0  0  0  0  0  0  0  0  0  0  0  0
    2.0250    1.7720    0.3986 N   0  0  0  0  0  0  0  0  0  0  0  0
    3.3906    1.9647   -0.0234 C   0  0  0  0  0  0  0  0  0  0  0  0
    3.7849    0.6764   -0.5059 N   0  0  0  0  0  0  0  0  0  0  0  0
   -4.0663    0.2281   -1.3645 H   0  0  0  0  0  0  0  0  0  0  0  0
   -3.5387    1.2708   -0.1604 H   0  0  0  0  0  0  0  0  0  0  0  0
   -1.9852   -1.1422   -0.5928 H   0  0  0  0  0  0  0  0  0  0  0  0
   -3.6671   -1.4105    0.0241 H   0  0  0  0  0  0  0  0  0  0  0  0
   -1.9698   -1.2466    1.7904 H   0  0  0  0  0  0  0  0  0  0  0  0
   -3.1119    0.1775    1.9335 H   0  0  0  0  0  0  0  0  0  0  0  0
    1.4305   -3.0982   -0.7107 H   0  0  0  0  0  0  0  0  0  0  0  0
    4.0473    2.3547    0.7811 H   0  0  0  0  0  0  0  0  0  0  0  0
    3.3256    2.6961   -0.8871 H   0  0  0  0  0  0  0  0  0  0  0  0
  1  2  1  0
  2  3  1  0
  3  4  1  0
  4  5  1  0
  5  6  2  0
  6  7  1  0
  7  8  2  0
  8  9  1  0
  9 10  1  0
 10 11  2  0
 11 12  1  0
 12 13  1  0
 10  5  1  0
 13  9  2  0
  1 14  1  0
  1 15  1  0
  2 16  1  0
  2 17  1  0
  3 18  1  0
  3 19  1  0
  7 20  1  0
 12 21  1  0
 12 22  1  0
M  END
$$$$

     RDKit          3D

 22 23  0  0  0  0  0  0  0  0999 V2000
    3.9717   -0.1234    0.6883 N   0  0  0  0  0  0  0  0  0  0  0  0
    3.1342   -1.0756    0.0166 C   0  0  0  0  0  0  0  0  0  0  0  0
    1.8297   -0.4675   -0.4570 C   0  0  0  0  0  0  0  0  0  0  0  0
    0.9596    0.1585    1.0092 S   0  0  0  0  0  0  0  0  0  0  0  0
   -0.5711    0.8760    0.4850 C   0  0  0  0  0  0  0  0  0  0  0  0
   -0.6086    2.1750    0.1556 N   0  0  0  0  0  0  0  0  0  0  0  0
   -1.7730    2.7012   -0.2384 C   0  0  0  0  0  0  0  0  0  0  0  0
   -2.9141    1.9828   -0.3196 N   0  0  0  0  0  0  0  0  0  0  0  0
   -2.8717    0.6746    0.0131 C   0  0  0  0  0  0  0  0  0  0  0  0
   -1.6947    0.0910    0.4242 C   0  0  0  0  0  0  0  0  0  0  0  0
   -1.8484   -1.1558    0.6973 N   0  0  0  0  0  0  0  0  0  0  0  0
   -3.2313   -1.4928    0.4670 C   0  0  0  0  0  0  0  0  0  0  0  0
   -3.8108   -0.2394    0.0260 N   0  0  0  0  0  0  0  0  0  0  0  0
    4.9635   -0.1548    0.4051 H   0  0  0  0  0  0  0  0  0  0  0  0
    3.5660    0.8324    0.7310 H   0  0  0  0  0  0  0  0  0  0  0  0
    2.8669   -1.8851    0.7257 H   0  0  0  0  0  0  0  0  0  0  0  0
    3.6033   -1.5608   -0.8520 H   0  0  0  0  0  0  0  0  0  0  0  0
    1.2192   -1.2773   -0.9106 H   0  0  0  0  0  0  0  0  0  0  0  0
    1.9701    0.3406   -1.1892 H   0  0  0  0  0  0  0  0  0  0  0  0
   -1.7867    3.7507   -0.5008 H   0  0  0  0  0  0  0  0  0  0  0  0
   -3.2577   -2.2648   -0.3361 H   0  0  0  0  0  0  0  0  0  0  0  0
   -3.7161   -1.8854    1.3838 H   0  0  0  0  0  0  0  0  0  0  0  0
  1  2  1  0
  2  3  1  0
  3  4  1  0
  4  5  1  0
  5  6  2  0
  6  7  1  0
  7  8  2  0
  8  9  1  0
  9 10  1  0
 10 11  2  0
 11 12  1  0
 12 13  1  0
 10  5  1  0
 13  9  2  0
  1 14  1  0
  1 15  1  0
  2 16  1  0
  2 17  1  0
  3 18  1  0
  3 19  1  0
  7 20  1  0
 12 21  1  0
 12 22  1  0
M  END
$$$$

     RDKit          3D

 22 23  0  0  0  0  0  0  0  0999 V2000
    3.2968    0.7639   -0.1401 N   0  0  0  0  0  0  0  0  0  0  0  0
    2.8742   -0.6095    0.0385 C   0  0  0  0  0  0  0  0  0  0  0  0
    2.0972   -0.9715   -1.2263 C   0  0  0  0  0  0  0  0  0  0  0  0
    0.6606    0.1050   -1.4302 S   0  0  0  0  0  0  0  0  0  0  0  0
   -0.5234   -0.2276   -0.1338 C   0  0  0  0  0  0  0  0  0  0  0  0
   -0.2822   -1.1564    0.7912 N   0  0  0  0  0  0  0  0  0  0  0  0
   -1.1497   -1.4586    1.7934 C   0  0  0  0  0  0  0  0  0  0  0  0
   -2.2999   -0.7739    1.8326 N   0  0  0  0  0  0  0  0  0  0  0  0
   -2.6021    0.1871    0.9140 C   0  0  0  0  0  0  0  0  0  0  0  0
   -1.7265    0.4919   -0.0976 C   0  0  0  0  0  0  0  0  0  0  0  0
   -2.1918    1.4204   -0.8589 N   0  0  0  0  0  0  0  0  0  0  0  0
   -3.4802    1.8006   -0.3541 C   0  0  0  0  0  0  0  0  0  0  0  0
   -3.6525    0.9447    0.7922 N   0  0  0  0  0  0  0  0  0  0  0  0
    4.2510    0.8728   -0.5016 H   0  0  0  0  0  0  0  0  0  0  0  0
    3.0393    1.3279    0.6763 H   0  0  0  0  0  0  0  0  0  0  0  0
    2.1820   -0.7335    0.8917 H   0  0  0  0  0  0  0  0  0  0  0  0
    3.7530   -1.2599    0.1441 H   0  0  0  0  0  0  0  0  0  0  0  0
    1.7067   -2.0122   -1.0233 H   0  0  0  0  0  0  0  0  0  0  0  0
    2.7553   -0.9098   -2.0884 H   0  0  0  0  0  0  0  0  0  0  0  0
   -0.9257   -2.2228    2.5328 H   0  0  0  0  0  0  0  0  0  0  0  0
   -4.2249    1.5428   -1.1663 H   0  0  0  0  0  0  0  0  0  0  0  0
   -3.5571    2.8786   -0.0941 H   0  0  0  0  0  0  0  0  0  0  0  0
  1  2  1  0
  2  3  1  0
  3  4  1  0
  4  5  1  0
  5  6  2  0
  6  7  1  0
  7  8  2  0
  8  9  1  0
  9 10  1  0
 10 11  2  0
 11 12  1  0
 12 13  1  0
 10  5  1  0
 13  9  2  0
  1 14  1  0
  1 15  1  0
  2 16  1  0
  2 17  1  0
  3 18  1  0
  3 19  1  0
  7 20  1  0
 12 21  1  0
 12 22  1  0
M  END
$$$$

     RDKit          3D

 22 23  0  0  0  0  0  0  0  0999 V2000
    2.6616    0.8134    0.3350 N   0  0  0  0  0  0  0  0  0  0  0  0
    2.1339    0.4602   -0.9832 C   0  0  0  0  0  0  0  0  0  0  0  0
    2.1521   -1.0709   -1.0035 C   0  0  0  0  0  0  0  0  0  0  0  0
    1.0987   -1.6183    0.3509 S   0  0  0  0  0  0  0  0  0  0  0  0
   -0.6000   -1.1973    0.1000 C   0  0  0  0  0  0  0  0  0  0  0  0
   -1.3970   -2.0486   -0.5398 N   0  0  0  0  0  0  0  0  0  0  0  0
   -2.7034   -1.8100   -0.7732 C   0  0  0  0  0  0  0  0  0  0  0  0
   -3.2116   -0.6432   -0.3275 N   0  0  0  0  0  0  0  0  0  0  0  0
   -2.4705    0.2651    0.3259 C   0  0  0  0  0  0  0  0  0  0  0  0
   -1.1132   -0.0089    0.5552 C   0  0  0  0  0  0  0  0  0  0  0  0
   -0.5877    0.9709    1.1858 N   0  0  0  0  0  0  0  0  0  0  0  0
   -1.5860    1.9771    1.4192 C   0  0  0  0  0  0  0  0  0  0  0  0
   -2.7759    1.4070    0.8138 N   0  0  0  0  0  0  0  0  0  0  0  0
    2.2150    0.2729    1.0877 H   0  0  0  0  0  0  0  0  0  0  0  0
    3.6865    0.8388    0.3538 H   0  0  0  0  0  0  0  0  0  0  0  0
    2.7384    0.8956   -1.7808 H   0  0  0  0  0  0  0  0  0  0  0  0
    1.0857    0.7983   -1.1007 H   0  0  0  0  0  0  0  0  0  0  0  0
    1.8991   -1.4933   -1.9686 H   0  0  0  0  0  0  0  0  0  0  0  0
    3.2244   -1.3332   -0.8079 H   0  0  0  0  0  0  0  0  0  0  0  0
   -3.3217   -2.5241   -1.2966 H   0  0  0  0  0  0  0  0  0  0  0  0
   -1.7396    2.1205    2.4929 H   0  0  0  0  0  0  0  0  0  0  0  0
   -1.3890    2.9279    0.8746 H   0  0  0  0  0  0  0  0  0  0  0  0
  1  2  1  0
  2  3  1  0
  3  4  1  0
  4  5  1  0
  5  6  2  0
  6  7  1  0
  7  8  2  0
  8  9  1  0
  9 10  1  0
 10 11  2  0
 11 12  1  0
 12 13  1  0
 10  5  1  0
 13  9  2  0
  1 14  1  0
  1 15  1  0
  2 16  1  0
  2 17  1  0
  3 18  1  0
  3 19  1  0
  7 20  1  0
 12 21  1  0
 12 22  1  0
M  END
$$$$
