
     RDKit          3D

 22 22  0  0  0  0  0  0  0  0999 V2000
    3.8383   -0.0103   -0.4818 C   0  0  0  0  0  0  0  0  0  0  0  0
    2.3498   -0.1833   -0.3402 C   0  0  0  0  0  0  0  0  0  0  0  0
    1.8023   -1.3993   -0.1836 N   0  0  0  0  0  0  0  0  0  0  0  0
    0.5053   -1.5841   -0.0572 N   0  0  0  0  0  0  0  0  0  0  0  0
   -0.3816   -0.5343   -0.0775 C   0  0  0  0  0  0  0  0  0  0  0  0
   -1.7673   -0.7978    0.0652 N   0  0  0  0  0  0  0  0  0  0  0  0
   -2.8149    0.1743    0.0568 C   0  0  0  0  0  0  0  0  0  0  0  0
   -2.1878   -2.1555    0.2385 N   0  0  0  0  0  0  0  0  0  0  0  0
    0.1378    0.6779   -0.2314 N   0  0  0  0  0  0  0  0  0  0  0  0
   -0.6667    1.8000   -0.2650 N   0  0  0  0  0  0  0  0  0  0  0  0
    1.4916    0.8831   -0.3644 C   0  0  0  0  0  0  0  0  0  0  0  0
    1.9494    2.0455   -0.5086 O   0  0  0  0  0  0  0  0  0  0  0  0
    4.1208    1.0335   -0.5797 H   0  0  0  0  0  0  0  0  0  0  0  0
    4.3771   -0.4835    0.3678 H   0  0  0  0  0  0  0  0  0  0  0  0
    4.1212   -0.5909   -1.3840 H   0  0  0  0  0  0  0  0  0  0  0  0
   -3.8171   -0.3665   -0.0064 H   0  0  0  0  0  0  0  0  0  0  0  0
   -2.7695    0.9082   -0.7690 H   0  0  0  0  0  0  0  0  0  0  0  0
   -2.7862    0.7008    1.0575 H   0  0  0  0  0  0  0  0  0  0  0  0
   -2.9784   -2.1626    0.9066 H   0  0  0  0  0  0  0  0  0  0  0  0
   -2.5927   -2.4089   -0.7042 H   0  0  0  0  0  0  0  0  0  0  0  0
   -0.8815    2.2418   -1.1803 H   0  0  0  0  0  0  0  0  0  0  0  0
   -1.0499    2.2117    0.6018 H   0  0  0  0  0  0  0  0  0  0  0  0
  1  2  1  0
  2  3  2  0
  3  4  1  0
  4  5  2  0
  5  6  1  0
  6  7  1  0
  6  8  1  0
  5  9  1  0
  9 10  1  0
  9 11  1  0
 11 12  2  0
 11  2  1  0
  1 13  1  0
  1 14  1  0
  1 15  1  0
  7 16  1  0
  7 17  1  0
  7 18  1  0
  8 19  1  0
  8 20  1  0
 10 21  1  0
 10 22  1  0
M  END
$$$$

     RDKit          3D

 22 22  0  0  0  0  0  0  0  0999 V2000
    3.6958    0.6886   -0.1654 C   0  0  0  0  0  0  0  0  0  0  0  0
    2.2261    0.5473   -0.1004 C   0  0  0  0  0  0  0  0  0  0  0  0
    1.4331    1.6452   -0.0224 N   0  0  0  0  0  0  0  0  0  0  0  0
    0.1357    1.5000    0.0342 N   0  0  0  0  0  0  0  0  0  0  0  0
   -0.5141    0.3259    0.0222 C   0  0  0  0  0  0  0  0  0  0  0  0
   -1.9191    0.2064    0.0849 N   0  0  0  0  0  0  0  0  0  0  0  0
   -2.7354    1.3887    0.1672 C   0  0  0  0  0  0  0  0  0  0  0  0
   -2.5209   -1.0454    0.0676 N   0  0  0  0  0  0  0  0  0  0  0  0
    0.2818   -0.7806   -0.0563 N   0  0  0  0  0  0  0  0  0  0  0  0
   -0.3426   -2.0179   -0.0718 N   0  0  0  0  0  0  0  0  0  0  0  0
    1.6177   -0.6811   -0.1164 C   0  0  0  0  0  0  0  0  0  0  0  0
    2.3453   -1.6983   -0.1884 O   0  0  0  0  0  0  0  0  0  0  0  0
    4.0228    1.2845    0.7361 H   0  0  0  0  0  0  0  0  0  0  0  0
    4.0133    1.1842   -1.1125 H   0  0  0  0  0  0  0  0  0  0  0  0
    4.1731   -0.2979   -0.1438 H   0  0  0  0  0  0  0  0  0  0  0  0
   -2.4955    2.0060   -0.7428 H   0  0  0  0  0  0  0  0  0  0  0  0
   -2.4591    1.9791    1.0609 H   0  0  0  0  0  0  0  0  0  0  0  0
   -3.7992    1.1327    0.1336 H   0  0  0  0  0  0  0  0  0  0  0  0
   -3.4804   -1.0354    0.4763 H   0  0  0  0  0  0  0  0  0  0  0  0
   -2.5339   -1.3832   -0.9397 H   0  0  0  0  0  0  0  0  0  0  0  0
   -0.7201   -2.4207    0.7999 H   0  0  0  0  0  0  0  0  0  0  0  0
   -0.4241   -2.5282   -0.9640 H   0  0  0  0  0  0  0  0  0  0  0  0
  1  2  1  0
  2  3  2  0
  3  4  1  0
  4  5  2  0
  5  6  1  0
  6  7  1  0
  6  8  1  0
  5  9  1  0
  9 10  1  0
  9 11  1  0
 11 12  2  0
 11  2  1  0
  1 13  1  0
  1 14  1  0
  1 15  1  0
  7 16  1  0
  7 17  1  0
  7 18  1  0
  8 19  1  0
  8 20  1  0
 10 21  1  0
 10 22  1  0
M  END
$$$$

     RDKit          3D

 22 22  0  0  0  0  0  0  0  0999 V2000
    3.6507   -0.1443   -0.5417 C   0  0  0  0  0  0  0  0  0  0  0  0
    2.1891   -0.1607   -0.4494 C   0  0  0  0  0  0  0  0  0  0  0  0
    1.4512   -0.5165   -1.5167 N   0  0  0  0  0  0  0  0  0  0  0  0
    0.1440   -0.5370   -1.4526 N   0  0  0  0  0  0  0  0  0  0  0  0
   -0.5165   -0.2066   -0.3282 C   0  0  0  0  0  0  0  0  0  0  0  0
   -1.9245   -0.2455   -0.3129 N   0  0  0  0  0  0  0  0  0  0  0  0
   -2.6222    0.9536   -0.6887 C   0  0  0  0  0  0  0  0  0  0  0  0
   -2.6458   -1.3708    0.0427 N   0  0  0  0  0  0  0  0  0  0  0  0
    0.1788    0.1627    0.7865 N   0  0  0  0  0  0  0  0  0  0  0  0
   -0.5011    0.5059    1.9555 N   0  0  0  0  0  0  0  0  0  0  0  0
    1.5154    0.1774    0.7012 C   0  0  0  0  0  0  0  0  0  0  0  0
    2.1599    0.5243    1.7490 O   0  0  0  0  0  0  0  0  0  0  0  0
    3.9787   -0.1897   -1.5996 H   0  0  0  0  0  0  0  0  0  0  0  0
    4.1106    0.7440   -0.0916 H   0  0  0  0  0  0  0  0  0  0  0  0
    4.1282   -1.0299   -0.0457 H   0  0  0  0  0  0  0  0  0  0  0  0
   -3.7075    0.9142   -0.4494 H   0  0  0  0  0  0  0  0  0  0  0  0
   -2.1319    1.8380   -0.1939 H   0  0  0  0  0  0  0  0  0  0  0  0
   -2.4522    1.1013   -1.7800 H   0  0  0  0  0  0  0  0  0  0  0  0
   -3.4625   -1.5633   -0.5780 H   0  0  0  0  0  0  0  0  0  0  0  0
   -2.0518   -2.2448   -0.0119 H   0  0  0  0  0  0  0  0  0  0  0  0
   -0.0264    1.0892    2.6752 H   0  0  0  0  0  0  0  0  0  0  0  0
   -1.4641    0.1985    2.1302 H   0  0  0  0  0  0  0  0  0  0  0  0
  1  2  1  0
  2  3  2  0
  3  4  1  0
  4  5  2  0
  5  6  1  0
  6  7  1  0
  6  8  1  0
  5  9  1  0
  9 10  1  0
  9 11  1  0
 11 12  2  0
 11  2  1  0
  1 13  1  0
  1 14  1  0
  1 15  1  0
  7 16  1  0
  7 17  1  0
  7 18  1  0
  8 19  1  0
  8 20  1  0
 10 21  1  0
 10 22  1  0
M  END
$$$$

     RDKit          3D

 22 22  0  0  0  0  0  0  0  0999 V2000
    3.6803    0.2486   -0.4829 C   0  0  0  0  0  0  0  0  0  0  0  0
    2.1944    0.3991   -0.4820 C   0  0  0  0  0  0  0  0  0  0  0  0
    1.5574    1.4423   -0.9862 N   0  0  0  0  0  0  0  0  0  0  0  0
    0.2314    1.4819   -0.9350 N   0  0  0  0  0  0  0  0  0  0  0  0
   -0.5001    0.4997   -0.3884 C   0  0  0  0  0  0  0  0  0  0  0  0
   -1.9127    0.5537   -0.3379 N   0  0  0  0  0  0  0  0  0  0  0  0
   -2.8129   -0.4343   -0.8539 C   0  0  0  0  0  0  0  0  0  0  0  0
   -2.4733    1.6874    0.2760 N   0  0  0  0  0  0  0  0  0  0  0  0
    0.1259   -0.5541    0.1219 N   0  0  0  0  0  0  0  0  0  0  0  0
   -0.5601   -1.6316    0.7145 N   0  0  0  0  0  0  0  0  0  0  0  0
    1.4654   -0.6170    0.0819 C   0  0  0  0  0  0  0  0  0  0  0  0
    2.0361   -1.6471    0.5828 O   0  0  0  0  0  0  0  0  0  0  0  0
    3.9416   -0.2114    0.5093 H   0  0  0  0  0  0  0  0  0  0  0  0
    3.9397   -0.5323   -1.2397 H   0  0  0  0  0  0  0  0  0  0  0  0
    4.2070    1.1960   -0.6585 H   0  0  0  0  0  0  0  0  0  0  0  0
   -2.3400   -1.2370   -1.4274 H   0  0  0  0  0  0  0  0  0  0  0  0
   -3.4253   -0.8387    0.0016 H   0  0  0  0  0  0  0  0  0  0  0  0
   -3.5395    0.0684   -1.5327 H   0  0  0  0  0  0  0  0  0  0  0  0
   -1.9708    2.5254   -0.1203 H   0  0  0  0  0  0  0  0  0  0  0  0
   -2.1925    1.6455    1.2826 H   0  0  0  0  0  0  0  0  0  0  0  0
   -0.2556   -2.6155    0.6052 H   0  0  0  0  0  0  0  0  0  0  0  0
   -1.3963   -1.4290    1.2786 H   0  0  0  0  0  0  0  0  0  0  0  0
  1  2  1  0
  2  3  2  0
  3  4  1  0
  4  5  2  0
  5  6  1  0
  6  7  1  0
  6  8  1  0
  5  9  1  0
  9 10  1  0
  9 11  1  0
 11 12  2  0
 11  2  1  0
  1 13  1  0
  1 14  1  0
  1 15  1  0
  7 16  1  0
  7 17  1  0
  7 18  1  0
  8 19  1  0
  8 20  1  0
 10 21  1  0
 10 22  1  0
M  END
$$$$

     RDKit          3D

 22 22  0  0  0  0  0  0  0  0999 V2000
    3.7122    0.4190    0.5317 C   0  0  0  0  0  0  0  0  0  0  0  0
    2.2269    0.4128    0.4604 C   0  0  0  0  0  0  0  0  0  0  0  0
    1.4619    1.3506    1.0176 N   0  0  0  0  0  0  0  0  0  0  0  0
    0.1542    1.2726    0.9090 N   0  0  0  0  0  0  0  0  0  0  0  0
   -0.4997    0.2937    0.2615 C   0  0  0  0  0  0  0  0  0  0  0  0
   -1.9054    0.2306    0.1579 N   0  0  0  0  0  0  0  0  0  0  0  0
   -2.7097    1.2567    0.7689 C   0  0  0  0  0  0  0  0  0  0  0  0
   -2.5451   -0.7988   -0.5206 N   0  0  0  0  0  0  0  0  0  0  0  0
    0.2886   -0.6599   -0.3046 N   0  0  0  0  0  0  0  0  0  0  0  0
   -0.3496   -1.7012   -0.9907 N   0  0  0  0  0  0  0  0  0  0  0  0
    1.6268   -0.6187   -0.2178 C   0  0  0  0  0  0  0  0  0  0  0  0
    2.3040   -1.5299   -0.7622 O   0  0  0  0  0  0  0  0  0  0  0  0
    4.0247   -0.6147    0.7996 H   0  0  0  0  0  0  0  0  0  0  0  0
    4.1293    0.6381   -0.4718 H   0  0  0  0  0  0  0  0  0  0  0  0
    4.0207    1.1626    1.2888 H   0  0  0  0  0  0  0  0  0  0  0  0
   -2.2233    1.6379    1.7138 H   0  0  0  0  0  0  0  0  0  0  0  0
   -3.6868    0.8428    1.0219 H   0  0  0  0  0  0  0  0  0  0  0  0
   -2.7853    2.1441    0.0885 H   0  0  0  0  0  0  0  0  0  0  0  0
   -2.5391   -0.5266   -1.5455 H   0  0  0  0  0  0  0  0  0  0  0  0
   -3.4997   -0.9809   -0.1659 H   0  0  0  0  0  0  0  0  0  0  0  0
   -0.7435   -2.5261   -0.4848 H   0  0  0  0  0  0  0  0  0  0  0  0
   -0.4619   -1.7047   -2.0289 H   0  0  0  0  0  0  0  0  0  0  0  0
  1  2  1  0
  2  3  2  0
  3  4  1  0
  4  5  2  0
  5  6  1  0
  6  7  1  0
  6  8  1  0
  5  9  1  0
  9 10  1  0
  9 11  1  0
 11 12  2  0
 11  2  1  0
  1 13  1  0
  1 14  1  0
  1 15  1  0
  7 16  1  0
  7 17  1  0
  7 18  1  0
  8 19  1  0
  8 20  1  0
 10 21  1  0
 10 22  1  0
M  END
$$$$

     RDKit          3D

 22 22  0  0  0  0  0  0  0  0999 V2000
    3.6330   -0.0528    0.7642 C   0  0  0  0  0  0  0  0  0  0  0  0
    2.1543   -0.1687    0.6221 C   0  0  0  0  0  0  0  0  0  0  0  0
    1.4454   -1.0991    1.2744 N   0  0  0  0  0  0  0  0  0  0  0  0
    0.1439   -1.1389    1.0929 N   0  0  0  0  0  0  0  0  0  0  0  0
   -0.4696   -0.2584    0.2624 C   0  0  0  0  0  0  0  0  0  0  0  0
   -1.8673   -0.3857    0.1446 N   0  0  0  0  0  0  0  0  0  0  0  0
   -2.4102   -1.3685   -0.7559 C   0  0  0  0  0  0  0  0  0  0  0  0
   -2.7003    0.4319    0.8825 N   0  0  0  0  0  0  0  0  0  0  0  0
    0.2010    0.6776   -0.4013 N   0  0  0  0  0  0  0  0  0  0  0  0
   -0.4526    1.5650   -1.2412 N   0  0  0  0  0  0  0  0  0  0  0  0
    1.5311    0.7291   -0.2240 C   0  0  0  0  0  0  0  0  0  0  0  0
    2.2290    1.6087   -0.8367 O   0  0  0  0  0  0  0  0  0  0  0  0
    4.0522    0.1656   -0.2361 H   0  0  0  0  0  0  0  0  0  0  0  0
    3.9992   -1.0700    1.0777 H   0  0  0  0  0  0  0  0  0  0  0  0
    3.8879    0.7534    1.4516 H   0  0  0  0  0  0  0  0  0  0  0  0
   -1.7765   -1.4445   -1.6918 H   0  0  0  0  0  0  0  0  0  0  0  0
   -3.4348   -1.1587   -1.0792 H   0  0  0  0  0  0  0  0  0  0  0  0
   -2.3052   -2.3814   -0.2555 H   0  0  0  0  0  0  0  0  0  0  0  0
   -3.5767    0.7114    0.3875 H   0  0  0  0  0  0  0  0  0  0  0  0
   -2.8934    0.0870    1.8490 H   0  0  0  0  0  0  0  0  0  0  0  0
   -0.5783    1.3320   -2.2467 H   0  0  0  0  0  0  0  0  0  0  0  0
   -0.8122    2.4650   -0.8406 H   0  0  0  0  0  0  0  0  0  0  0  0
  1  2  1  0
  2  3  2  0
  3  4  1  0
  4  5  2  0
  5  6  1  0
  6  7  1  0
  6  8  1  0
  5  9  1  0
  9 10  1  0
  9 11  1  0
 11 12  2  0
 11  2  1  0
  1 13  1  0
  1 14  1  0
  1 15  1  0
  7 16  1  0
  7 17  1  0
  7 18  1  0
  8 19  1  0
  8 20  1  0
 10 21  1  0
 10 22  1  0
M  END
$$$$

     RDKit          3D

 22 22  0  0  0  0  0  0  0  0999 V2000
    3.6565   -0.8149   -0.1310 C   0  0  0  0  0  0  0  0  0  0  0  0
    2.1757   -0.6270    0.0258 C   0  0  0  0  0  0  0  0  0  0  0  0
    1.4072   -1.5184    0.6772 N   0  0  0  0  0  0  0  0  0  0  0  0
    0.0993   -1.3885    0.8366 N   0  0  0  0  0  0  0  0  0  0  0  0
   -0.5380   -0.3185    0.3339 C   0  0  0  0  0  0  0  0  0  0  0  0
   -1.9391   -0.1388    0.4811 N   0  0  0  0  0  0  0  0  0  0  0  0
   -2.9211   -0.6250   -0.4632 C   0  0  0  0  0  0  0  0  0  0  0  0
   -2.3963    0.5498    1.6079 N   0  0  0  0  0  0  0  0  0  0  0  0
    0.1967    0.5985   -0.3263 N   0  0  0  0  0  0  0  0  0  0  0  0
   -0.4787    1.6979   -0.8392 N   0  0  0  0  0  0  0  0  0  0  0  0
    1.5301    0.4742   -0.4935 C   0  0  0  0  0  0  0  0  0  0  0  0
    2.1964    1.3612   -1.1241 O   0  0  0  0  0  0  0  0  0  0  0  0
    4.0349   -0.3503   -1.0502 H   0  0  0  0  0  0  0  0  0  0  0  0
    4.1863   -0.4074    0.7444 H   0  0  0  0  0  0  0  0  0  0  0  0
    3.8089   -1.9236   -0.1522 H   0  0  0  0  0  0  0  0  0  0  0  0
   -3.8102    0.0174   -0.4132 H   0  0  0  0  0  0  0  0  0  0  0  0
   -2.5220   -0.5697   -1.5087 H   0  0  0  0  0  0  0  0  0  0  0  0
   -3.2020   -1.6923   -0.2182 H   0  0  0  0  0  0  0  0  0  0  0  0
   -1.8986    1.4628    1.6852 H   0  0  0  0  0  0  0  0  0  0  0  0
   -2.1124   -0.0154    2.4352 H   0  0  0  0  0  0  0  0  0  0  0  0
   -0.8295    2.4718   -0.2453 H   0  0  0  0  0  0  0  0  0  0  0  0
   -0.6442    1.7564   -1.8621 H   0  0  0  0  0  0  0  0  0  0  0  0
  1  2  1  0
  2  3  2  0
  3  4  1  0
  4  5  2  0
  5  6  1  0
  6  7  1  0
  6  8  1  0
  5  9  1  0
  9 10  1  0
  9 11  1  0
 11 12  2  0
 11  2  1  0
  1 13  1  0
  1 14  1  0
  1 15  1  0
  7 16  1  0
  7 17  1  0
  7 18  1  0
  8 19  1  0
  8 20  1  0
 10 21  1  0
 10 22  1  0
M  END
$$$$

     RDKit          3D

 22 22  0  0  0  0  0  0  0  0999 V2000
    3.6906    0.6194    0.4568 C   0  0  0  0  0  0  0  0  0  0  0  0
    2.2178    0.5377    0.3366 C   0  0  0  0  0  0  0  0  0  0  0  0
    1.3923    1.5383    0.6990 N   0  0  0  0  0  0  0  0  0  0  0  0
    0.0872    1.4201    0.5737 N   0  0  0  0  0  0  0  0  0  0  0  0
   -0.5196    0.3144    0.0839 C   0  0  0  0  0  0  0  0  0  0  0  0
   -1.9234    0.2065   -0.0429 N   0  0  0  0  0  0  0  0  0  0  0  0
   -2.7549    1.3113    0.3618 C   0  0  0  0  0  0  0  0  0  0  0  0
   -2.4858   -0.9559   -0.5534 N   0  0  0  0  0  0  0  0  0  0  0  0
    0.2801   -0.7066   -0.2884 N   0  0  0  0  0  0  0  0  0  0  0  0
   -0.2662   -1.8940   -0.8082 N   0  0  0  0  0  0  0  0  0  0  0  0
    1.6085   -0.6001   -0.1665 C   0  0  0  0  0  0  0  0  0  0  0  0
    2.3956   -1.5459   -0.5087 O   0  0  0  0  0  0  0  0  0  0  0  0
    4.1159   -0.3738    0.2472 H   0  0  0  0  0  0  0  0  0  0  0  0
    4.0444    1.2936   -0.3553 H   0  0  0  0  0  0  0  0  0  0  0  0
    3.9272    1.0027    1.4660 H   0  0  0  0  0  0  0  0  0  0  0  0
   -2.4263    2.2769   -0.0841 H   0  0  0  0  0  0  0  0  0  0  0  0
   -3.8230    1.1309    0.2133 H   0  0  0  0  0  0  0  0  0  0  0  0
   -2.6150    1.4305    1.4754 H   0  0  0  0  0  0  0  0  0  0  0  0
   -3.1670   -0.7852   -1.3209 H   0  0  0  0  0  0  0  0  0  0  0  0
   -2.8561   -1.5890    0.1857 H   0  0  0  0  0  0  0  0  0  0  0  0
   -0.6757   -2.5545   -0.1370 H   0  0  0  0  0  0  0  0  0  0  0  0
   -0.2465   -2.0771   -1.8340 H   0  0  0  0  0  0  0  0  0  0  0  0
  1  2  1  0
  2  3  2  0
  3  4  1  0
  4  5  2  0
  5  6  1  0
  6  7  1  0
  6  8  1  0
  5  9  1  0
  9 10  1  0
  9 11  1  0
 11 12  2  0
 11  2  1  0
  1 13  1  0
  1 14  1  0
  1 15  1  0
  7 16  1  0
  7 17  1  0
  7 18  1  0
  8 19  1  0
  8 20  1  0
 10 21  1  0
 10 22  1  0
M  END
$$$$
