
     RDKit          3D

 24 24  0  0  0  0  0  0  0  0999 V2000
   -3.2740    0.8517    0.1428 N   0  0  0  0  0  0  0  0  0  0  0  0
   -2.4673   -0.2819   -0.2201 C   0  0  0  0  0  0  0  0  0  0  0  0
   -1.1844   -0.2173    0.6192 C   0  0  1  0  0  0  0  0  0  0  0  0
   -0.2703   -1.3479    0.3248 C   0  0  0  0  0  0  0  0  0  0  0  0
    1.0099   -0.9848   -0.3388 C   0  0  0  0  0  0  0  0  0  0  0  0
    1.6661    0.2192    0.3388 C   0  0  1  0  0  0  0  0  0  0  0  0
    3.0226    0.4522   -0.1267 C   0  0  0  0  0  0  0  0  0  0  0  0
    3.3327    1.5296   -0.6787 O   0  0  0  0  0  0  0  0  0  0  0  0
    3.9998   -0.5082    0.0288 O   0  0  0  0  0  0  0  0  0  0  0  0
    0.7730    1.3367    0.0924 N   0  0  0  0  0  0  0  0  0  0  0  0
   -0.5997    1.1130    0.3943 C   0  0  0  0  0  0  0  0  0  0  0  0
   -1.3590    2.1142    0.4735 O   0  0  0  0  0  0  0  0  0  0  0  0
   -3.3654    1.5677   -0.6021 H   0  0  0  0  0  0  0  0  0  0  0  0
   -4.1707    0.5971    0.5980 H   0  0  0  0  0  0  0  0  0  0  0  0
   -2.9718   -1.2173    0.0258 H   0  0  0  0  0  0  0  0  0  0  0  0
   -2.1630   -0.2054   -1.2872 H   0  0  0  0  0  0  0  0  0  0  0  0
   -1.5334   -0.2909    1.6851 H   0  0  0  0  0  0  0  0  0  0  0  0
   -0.8154   -2.0532   -0.3683 H   0  0  0  0  0  0  0  0  0  0  0  0
   -0.0383   -1.9483    1.2422 H   0  0  0  0  0  0  0  0  0  0  0  0
    1.7318   -1.8373   -0.1707 H   0  0  0  0  0  0  0  0  0  0  0  0
    0.9454   -0.8580   -1.4329 H   0  0  0  0  0  0  0  0  0  0  0  0
    1.6142   -0.0162    1.4425 H   0  0  0  0  0  0  0  0  0  0  0  0
    4.9992   -0.2731    0.1168 H   0  0  0  0  0  0  0  0  0  0  0  0
    1.1179    2.2586   -0.2871 H   0  0  0  0  0  0  0  0  0  0  0  0
  1  2  1  0
  2  3  1  0
  3  4  1  0
  4  5  1  0
  5  6  1  0
  6  7  1  0
  7  8  2  0
  7  9  1  0
  6 10  1  0
 10 11  1  0
 11 12  2  0
 11  3  1  0
  1 13  1  0
  1 14  1  0
  2 15  1  0
  2 16  1  0
  3 17  1  1
  4 18  1  0
  4 19  1  0
  5 20  1  0
  5 21  1  0
  6 22  1  1
  9 23  1  0
 10 24  1  0
M  END
$$$$

     RDKit          3D

 24 24  0  0  0  0  0  0  0  0999 V2000
   -2.9506    0.4884   -0.5226 N   0  0  0  0  0  0  0  0  0  0  0  0
   -2.5620   -0.7259    0.1077 C   0  0  0  0  0  0  0  0  0  0  0  0
   -1.1071   -0.7653    0.5037 C   0  0  1  0  0  0  0  0  0  0  0  0
   -0.2191   -0.6005   -0.7352 C   0  0  0  0  0  0  0  0  0  0  0  0
    1.1928   -0.8851   -0.2696 C   0  0  0  0  0  0  0  0  0  0  0  0
    1.6274    0.1625    0.7161 C   0  0  1  0  0  0  0  0  0  0  0  0
    2.6904    0.9689    0.1084 C   0  0  0  0  0  0  0  0  0  0  0  0
    2.6009    2.2148    0.0632 O   0  0  0  0  0  0  0  0  0  0  0  0
    3.8009    0.3521   -0.4195 O   0  0  0  0  0  0  0  0  0  0  0  0
    0.5336    0.9537    1.2225 N   0  0  0  0  0  0  0  0  0  0  0  0
   -0.7430    0.3577    1.4061 C   0  0  0  0  0  0  0  0  0  0  0  0
   -1.5478    0.7611    2.3023 O   0  0  0  0  0  0  0  0  0  0  0  0
   -2.2134    1.1888   -0.6563 H   0  0  0  0  0  0  0  0  0  0  0  0
   -3.8637    0.8799   -0.2096 H   0  0  0  0  0  0  0  0  0  0  0  0
   -3.1711   -0.8674    1.0127 H   0  0  0  0  0  0  0  0  0  0  0  0
   -2.7594   -1.5779   -0.5613 H   0  0  0  0  0  0  0  0  0  0  0  0
   -0.8562   -1.7589    0.9268 H   0  0  0  0  0  0  0  0  0  0  0  0
   -0.3415    0.4692   -1.0458 H   0  0  0  0  0  0  0  0  0  0  0  0
   -0.5398   -1.2940   -1.5208 H   0  0  0  0  0  0  0  0  0  0  0  0
    1.1633   -1.8781    0.2421 H   0  0  0  0  0  0  0  0  0  0  0  0
    1.8450   -0.9094   -1.1689 H   0  0  0  0  0  0  0  0  0  0  0  0
    2.0764   -0.3415    1.6209 H   0  0  0  0  0  0  0  0  0  0  0  0
    4.6975    0.8284   -0.5562 H   0  0  0  0  0  0  0  0  0  0  0  0
    0.6464    1.9784    1.4676 H   0  0  0  0  0  0  0  0  0  0  0  0
  1  2  1  0
  2  3  1  0
  3  4  1  0
  4  5  1  0
  5  6  1  0
  6  7  1  0
  7  8  2  0
  7  9  1  0
  6 10  1  0
 10 11  1  0
 11 12  2  0
 11  3  1  0
  1 13  1  0
  1 14  1  0
  2 15  1  0
  2 16  1  0
  3 17  1  1
  4 18  1  0
  4 19  1  0
  5 20  1  0
  5 21  1  0
  6 22  1  1
  9 23  1  0
 10 24  1  0
M  END
$$$$

     RDKit          3D

 24 24  0  0  0  0  0  0  0  0999 V2000
   -3.1513   -0.0378   -0.9509 N   0  0  0  0  0  0  0  0  0  0  0  0
   -2.6116   -0.2130    0.3213 C   0  0  0  0  0  0  0  0  0  0  0  0
   -1.1364   -0.0445    0.4656 C   0  0  1  0  0  0  0  0  0  0  0  0
   -0.3741   -1.0363   -0.4063 C   0  0  0  0  0  0  0  0  0  0  0  0
    1.0915   -0.9937   -0.1289 C   0  0  0  0  0  0  0  0  0  0  0  0
    1.5638    0.2924    0.5122 C   0  0  1  0  0  0  0  0  0  0  0  0
    2.9757    0.4924    0.1480 C   0  0  0  0  0  0  0  0  0  0  0  0
    3.3182    1.5010   -0.4966 O   0  0  0  0  0  0  0  0  0  0  0  0
    3.9163   -0.4417    0.5239 O   0  0  0  0  0  0  0  0  0  0  0  0
    0.7812    1.4048    0.0054 N   0  0  0  0  0  0  0  0  0  0  0  0
   -0.6326    1.2922    0.1378 C   0  0  0  0  0  0  0  0  0  0  0  0
   -1.3181    2.3289   -0.0341 O   0  0  0  0  0  0  0  0  0  0  0  0
   -3.4481   -0.8621   -1.4822 H   0  0  0  0  0  0  0  0  0  0  0  0
   -3.5586    0.8568   -1.2062 H   0  0  0  0  0  0  0  0  0  0  0  0
   -2.8627   -1.2369    0.6986 H   0  0  0  0  0  0  0  0  0  0  0  0
   -3.1043    0.4839    1.0407 H   0  0  0  0  0  0  0  0  0  0  0  0
   -0.8287   -0.2705    1.5103 H   0  0  0  0  0  0  0  0  0  0  0  0
   -0.8066   -2.0607   -0.3101 H   0  0  0  0  0  0  0  0  0  0  0  0
   -0.5404   -0.7016   -1.4648 H   0  0  0  0  0  0  0  0  0  0  0  0
    1.3668   -1.8467    0.5324 H   0  0  0  0  0  0  0  0  0  0  0  0
    1.6878   -1.1364   -1.0713 H   0  0  0  0  0  0  0  0  0  0  0  0
    1.5138    0.2432    1.6201 H   0  0  0  0  0  0  0  0  0  0  0  0
    4.9300   -0.2678    0.4737 H   0  0  0  0  0  0  0  0  0  0  0  0
    1.2283    2.2542   -0.4384 H   0  0  0  0  0  0  0  0  0  0  0  0
  1  2  1  0
  2  3  1  0
  3  4  1  0
  4  5  1  0
  5  6  1  0
  6  7  1  0
  7  8  2  0
  7  9  1  0
  6 10  1  0
 10 11  1  0
 11 12  2  0
 11  3  1  0
  1 13  1  0
  1 14  1  0
  2 15  1  0
  2 16  1  0
  3 17  1  1
  4 18  1  0
  4 19  1  0
  5 20  1  0
  5 21  1  0
  6 22  1  1
  9 23  1  0
 10 24  1  0
M  END
$$$$

     RDKit          3D

 24 24  0  0  0  0  0  0  0  0999 V2000
   -3.1140    0.2507   -0.5115 N   0  0  0  0  0  0  0  0  0  0  0  0
   -2.5152   -0.2891    0.6933 C   0  0  0  0  0  0  0  0  0  0  0  0
   -0.9951   -0.2947    0.6676 C   0  0  1  0  0  0  0  0  0  0  0  0
   -0.4487   -1.2072   -0.3686 C   0  0  0  0  0  0  0  0  0  0  0  0
    0.8731   -0.8023   -0.9264 C   0  0  0  0  0  0  0  0  0  0  0  0
    1.5532    0.0817    0.1334 C   0  0  1  0  0  0  0  0  0  0  0  0
    2.9683    0.1794   -0.0988 C   0  0  0  0  0  0  0  0  0  0  0  0
    3.4916   -0.4263   -1.1058 O   0  0  0  0  0  0  0  0  0  0  0  0
    3.7442    0.9209    0.7471 O   0  0  0  0  0  0  0  0  0  0  0  0
    0.7738    1.3243   -0.0176 N   0  0  0  0  0  0  0  0  0  0  0  0
   -0.5512    1.1266    0.3884 C   0  0  0  0  0  0  0  0  0  0  0  0
   -1.3762    2.0272    0.5206 O   0  0  0  0  0  0  0  0  0  0  0  0
   -2.4093    0.6349   -1.1735 H   0  0  0  0  0  0  0  0  0  0  0  0
   -3.7593    1.0779   -0.2108 H   0  0  0  0  0  0  0  0  0  0  0  0
   -2.7804   -1.4380    0.5813 H   0  0  0  0  0  0  0  0  0  0  0  0
   -2.9266    0.0373    1.6287 H   0  0  0  0  0  0  0  0  0  0  0  0
   -0.5787   -0.5470    1.6549 H   0  0  0  0  0  0  0  0  0  0  0  0
   -0.2076   -2.2229    0.1659 H   0  0  0  0  0  0  0  0  0  0  0  0
   -1.1769   -1.5730   -1.1191 H   0  0  0  0  0  0  0  0  0  0  0  0
    0.6478   -0.1248   -1.8016 H   0  0  0  0  0  0  0  0  0  0  0  0
    1.5258   -1.5937   -1.2299 H   0  0  0  0  0  0  0  0  0  0  0  0
    1.3338   -0.3406    1.1137 H   0  0  0  0  0  0  0  0  0  0  0  0
    4.7742    1.0000    0.6557 H   0  0  0  0  0  0  0  0  0  0  0  0
    1.1534    2.1985   -0.3873 H   0  0  0  0  0  0  0  0  0  0  0  0
  1  2  1  0
  2  3  1  0
  3  4  1  0
  4  5  1  0
  5  6  1  0
  6  7  1  0
  7  8  2  0
  7  9  1  0
  6 10  1  0
 10 11  1  0
 11 12  2  0
 11  3  1  0
  1 13  1  0
  1 14  1  0
  2 15  1  0
  2 16  1  0
  3 17  1  1
  4 18  1  0
  4 19  1  0
  5 20  1  0
  5 21  1  0
  6 22  1  1
  9 23  1  0
 10 24  1  0
M  END
$$$$

     RDKit          3D

 24 24  0  0  0  0  0  0  0  0999 V2000
   -2.8879    0.3637   -0.9295 N   0  0  0  0  0  0  0  0  0  0  0  0
   -2.6507   -0.4062    0.2513 C   0  0  0  0  0  0  0  0  0  0  0  0
   -1.1983   -0.3882    0.6767 C   0  0  1  0  0  0  0  0  0  0  0  0
   -0.3221   -0.9592   -0.4212 C   0  0  0  0  0  0  0  0  0  0  0  0
    1.0936   -1.0747    0.1410 C   0  0  0  0  0  0  0  0  0  0  0  0
    1.6102    0.2255    0.6652 C   0  0  1  0  0  0  0  0  0  0  0  0
    2.8456    0.6002   -0.0781 C   0  0  0  0  0  0  0  0  0  0  0  0
    2.9494    1.7175   -0.6444 O   0  0  0  0  0  0  0  0  0  0  0  0
    3.8747   -0.3241   -0.1237 O   0  0  0  0  0  0  0  0  0  0  0  0
    0.6325    1.2961    0.6192 N   0  0  0  0  0  0  0  0  0  0  0  0
   -0.7183    0.9960    0.9351 C   0  0  0  0  0  0  0  0  0  0  0  0
   -1.4865    1.8803    1.4210 O   0  0  0  0  0  0  0  0  0  0  0  0
   -2.1239    1.0379   -1.1513 H   0  0  0  0  0  0  0  0  0  0  0  0
   -3.8120    0.8554   -0.9314 H   0  0  0  0  0  0  0  0  0  0  0  0
   -2.9065   -1.4791    0.0737 H   0  0  0  0  0  0  0  0  0  0  0  0
   -3.2382   -0.0110    1.1156 H   0  0  0  0  0  0  0  0  0  0  0  0
   -1.0663   -1.0187    1.5742 H   0  0  0  0  0  0  0  0  0  0  0  0
   -0.2956   -0.2794   -1.3019 H   0  0  0  0  0  0  0  0  0  0  0  0
   -0.6449   -1.9616   -0.7266 H   0  0  0  0  0  0  0  0  0  0  0  0
    1.7175   -1.4738   -0.6758 H   0  0  0  0  0  0  0  0  0  0  0  0
    1.0148   -1.8450    0.9576 H   0  0  0  0  0  0  0  0  0  0  0  0
    1.9253    0.0701    1.7237 H   0  0  0  0  0  0  0  0  0  0  0  0
    4.7921   -0.1011   -0.5155 H   0  0  0  0  0  0  0  0  0  0  0  0
    0.8955    2.2795    0.3604 H   0  0  0  0  0  0  0  0  0  0  0  0
  1  2  1  0
  2  3  1  0
  3  4  1  0
  4  5  1  0
  5  6  1  0
  6  7  1  0
  7  8  2  0
  7  9  1  0
  6 10  1  0
 10 11  1  0
 11 12  2  0
 11  3  1  0
  1 13  1  0
  1 14  1  0
  2 15  1  0
  2 16  1  0
  3 17  1  1
  4 18  1  0
  4 19  1  0
  5 20  1  0
  5 21  1  0
  6 22  1  1
  9 23  1  0
 10 24  1  0
M  END
$$$$

     RDKit          3D

 24 24  0  0  0  0  0  0  0  0999 V2000
   -3.3131    0.9218    0.1760 N   0  0  0  0  0  0  0  0  0  0  0  0
   -2.3894    0.2002   -0.6944 C   0  0  0  0  0  0  0  0  0  0  0  0
   -1.2219   -0.3285    0.1050 C   0  0  1  0  0  0  0  0  0  0  0  0
   -0.2764   -1.0717   -0.7633 C   0  0  0  0  0  0  0  0  0  0  0  0
    1.0330   -1.4294   -0.1623 C   0  0  0  0  0  0  0  0  0  0  0  0
    1.7431   -0.2922    0.5417 C   0  0  1  0  0  0  0  0  0  0  0  0
    2.5370    0.5172   -0.3877 C   0  0  0  0  0  0  0  0  0  0  0  0
    2.1205    1.5890   -0.8450 O   0  0  0  0  0  0  0  0  0  0  0  0
    3.8063    0.0741   -0.7784 O   0  0  0  0  0  0  0  0  0  0  0  0
    0.8082    0.5932    1.1994 N   0  0  0  0  0  0  0  0  0  0  0  0
   -0.5143    0.8188    0.7583 C   0  0  0  0  0  0  0  0  0  0  0  0
   -1.0848    1.9597    0.9074 O   0  0  0  0  0  0  0  0  0  0  0  0
   -3.0817    0.7834    1.1869 H   0  0  0  0  0  0  0  0  0  0  0  0
   -3.3752    1.9382   -0.0624 H   0  0  0  0  0  0  0  0  0  0  0  0
   -2.9295   -0.6691   -1.1140 H   0  0  0  0  0  0  0  0  0  0  0  0
   -2.0555    0.8938   -1.5055 H   0  0  0  0  0  0  0  0  0  0  0  0
   -1.6026   -0.9997    0.8862 H   0  0  0  0  0  0  0  0  0  0  0  0
   -0.7783   -2.0547   -1.0209 H   0  0  0  0  0  0  0  0  0  0  0  0
   -0.1584   -0.5782   -1.7727 H   0  0  0  0  0  0  0  0  0  0  0  0
    0.9958   -2.3170    0.4666 H   0  0  0  0  0  0  0  0  0  0  0  0
    1.7100   -1.7003   -1.0265 H   0  0  0  0  0  0  0  0  0  0  0  0
    2.3614   -0.7537    1.3393 H   0  0  0  0  0  0  0  0  0  0  0  0
    4.5231    0.8075   -0.8488 H   0  0  0  0  0  0  0  0  0  0  0  0
    1.1426    1.0977    2.0572 H   0  0  0  0  0  0  0  0  0  0  0  0
  1  2  1  0
  2  3  1  0
  3  4  1  0
  4  5  1  0
  5  6  1  0
  6  7  1  0
  7  8  2  0
  7  9  1  0
  6 10  1  0
 10 11  1  0
 11 12  2  0
 11  3  1  0
  1 13  1  0
  1 14  1  0
  2 15  1  0
  2 16  1  0
  3 17  1  1
  4 18  1  0
  4 19  1  0
  5 20  1  0
  5 21  1  0
  6 22  1  1
  9 23  1  0
 10 24  1  0
M  END
$$$$

     RDKit          3D

 24 24  0  0  0  0  0  0  0  0999 V2000
   -2.5205    1.6721   -0.2217 N   0  0  0  0  0  0  0  0  0  0  0  0
   -2.1019    0.3486   -0.6208 C   0  0  0  0  0  0  0  0  0  0  0  0
   -1.2294   -0.2046    0.4745 C   0  0  1  0  0  0  0  0  0  0  0  0
   -0.6578   -1.5526    0.1126 C   0  0  0  0  0  0  0  0  0  0  0  0
    0.6434   -1.4093   -0.6344 C   0  0  0  0  0  0  0  0  0  0  0  0
    1.7544   -0.7006    0.1917 C   0  0  1  0  0  0  0  0  0  0  0  0
    2.5135    0.1624   -0.8107 C   0  0  0  0  0  0  0  0  0  0  0  0
    2.4828    0.1661   -1.9634 O   0  0  0  0  0  0  0  0  0  0  0  0
    3.4247    1.1177   -0.1323 O   0  0  0  0  0  0  0  0  0  0  0  0
    1.0811    0.2941    1.0127 N   0  0  0  0  0  0  0  0  0  0  0  0
   -0.2278    0.7368    0.9318 C   0  0  0  0  0  0  0  0  0  0  0  0
   -0.5621    1.8975    1.2234 O   0  0  0  0  0  0  0  0  0  0  0  0
   -3.4994    1.8605   -0.1225 H   0  0  0  0  0  0  0  0  0  0  0  0
   -1.9824    2.4025   -0.7712 H   0  0  0  0  0  0  0  0  0  0  0  0
   -3.0749   -0.2793   -0.6153 H   0  0  0  0  0  0  0  0  0  0  0  0
   -1.7044    0.2366   -1.6129 H   0  0  0  0  0  0  0  0  0  0  0  0
   -1.9350   -0.4391    1.3535 H   0  0  0  0  0  0  0  0  0  0  0  0
   -0.4683   -2.1850    0.9781 H   0  0  0  0  0  0  0  0  0  0  0  0
   -1.3339   -2.1026   -0.6017 H   0  0  0  0  0  0  0  0  0  0  0  0
    0.4968   -0.8391   -1.5694 H   0  0  0  0  0  0  0  0  0  0  0  0
    1.0170   -2.3945   -0.8786 H   0  0  0  0  0  0  0  0  0  0  0  0
    2.3973   -1.3547    0.7095 H   0  0  0  0  0  0  0  0  0  0  0  0
    3.7778    1.8619   -0.7253 H   0  0  0  0  0  0  0  0  0  0  0  0
    1.7091    0.7046    1.8064 H   0  0  0  0  0  0  0  0  0  0  0  0
  1  2  1  0
  2  3  1  0
  3  4  1  0
  4  5  1  0
  5  6  1  0
  6  7  1  0
  7  8  2  0
  7  9  1  0
  6 10  1  0
 10 11  1  0
 11 12  2  0
 11  3  1  0
  1 13  1  0
  1 14  1  0
  2 15  1  0
  2 16  1  0
  3 17  1  1
  4 18  1  0
  4 19  1  0
  5 20  1  0
  5 21  1  0
  6 22  1  1
  9 23  1  0
 10 24  1  0
M  END
$$$$

     RDKit          3D

 24 24  0  0  0  0  0  0  0  0999 V2000
    3.4752    0.2512   -0.4516 N   0  0  0  0  0  0  0  0  0  0  0  0
    2.4926   -0.7728   -0.4557 C   0  0  0  0  0  0  0  0  0  0  0  0
    1.1627   -0.3764    0.1200 C   0  0  1  0  0  0  0  0  0  0  0  0
    0.5397    0.7863   -0.6475 C   0  0  0  0  0  0  0  0  0  0  0  0
   -0.7918    1.1286   -0.0538 C   0  0  0  0  0  0  0  0  0  0  0  0
   -1.6132   -0.0187    0.4102 C   0  0  1  0  0  0  0  0  0  0  0  0
   -3.0718    0.1734    0.2096 C   0  0  0  0  0  0  0  0  0  0  0  0
   -3.7577   -0.6679   -0.4460 O   0  0  0  0  0  0  0  0  0  0  0  0
   -3.7500    1.2678    0.7221 O   0  0  0  0  0  0  0  0  0  0  0  0
   -1.1476   -1.2363   -0.2227 N   0  0  0  0  0  0  0  0  0  0  0  0
    0.2416   -1.5246   -0.1044 C   0  0  0  0  0  0  0  0  0  0  0  0
    0.6515   -2.7089   -0.1895 O   0  0  0  0  0  0  0  0  0  0  0  0
    3.1305    1.2099   -0.2761 H   0  0  0  0  0  0  0  0  0  0  0  0
    4.3092    0.0014    0.1181 H   0  0  0  0  0  0  0  0  0  0  0  0
    2.8589   -1.6347    0.1388 H   0  0  0  0  0  0  0  0  0  0  0  0
    2.3473   -1.1398   -1.4885 H   0  0  0  0  0  0  0  0  0  0  0  0
    1.2251   -0.0761    1.1723 H   0  0  0  0  0  0  0  0  0  0  0  0
    1.1713    1.6986   -0.5915 H   0  0  0  0  0  0  0  0  0  0  0  0
    0.4363    0.5383   -1.7260 H   0  0  0  0  0  0  0  0  0  0  0  0
   -0.6013    1.8512    0.7926 H   0  0  0  0  0  0  0  0  0  0  0  0
   -1.3822    1.7346   -0.7932 H   0  0  0  0  0  0  0  0  0  0  0  0
   -1.4376   -0.1480    1.5154 H   0  0  0  0  0  0  0  0  0  0  0  0
   -4.6847    1.5483    0.3909 H   0  0  0  0  0  0  0  0  0  0  0  0
   -1.8040   -1.8854   -0.7494 H   0  0  0  0  0  0  0  0  0  0  0  0
  1  2  1  0
  2  3  1  0
  3  4  1  0
  4  5  1  0
  5  6  1  0
  6  7  1  0
  7  8  2  0
  7  9  1  0
  6 10  1  0
 10 11  1  0
 11 12  2  0
 11  3  1  0
  1 13  1  0
  1 14  1  0
  2 15  1  0
  2 16  1  0
  3 17  1  1
  4 18  1  0
  4 19  1  0
  5 20  1  0
  5 21  1  0
  6 22  1  1
  9 23  1  0
 10 24  1  0
M  END
$$$$
