
     RDKit          3D

 18 18  0  0  0  0  0  0  0  0999 V2000
   -2.6756    0.6185   -0.4980 N   0  0  0  0  0  0  0  0  0  0  0  0
   -1.8971   -0.3923   -0.4269 N   0  0  0  0  0  0  0  0  0  0  0  0
   -0.8062   -0.6654    0.4180 C   0  0  0  0  0  0  0  0  0  0  0  0
    0.4545   -0.5838   -0.4991 C   0  0  2  0  0  0  0  0  0  0  0  0
    1.6232   -0.9817    0.0958 N   0  0  0  0  0  0  0  0  0  0  0  0
    2.6080    0.0317    0.2072 C   0  0  0  0  0  0  0  0  0  0  0  0
    3.8134   -0.1186    0.6018 O   0  0  0  0  0  0  0  0  0  0  0  0
    1.9885    1.2387   -0.1957 N   0  0  0  0  0  0  0  0  0  0  0  0
    0.6661    0.9458   -0.5413 C   0  0  0  0  0  0  0  0  0  0  0  0
   -0.2384    1.7615   -0.8302 O   0  0  0  0  0  0  0  0  0  0  0  0
   -3.0315    1.1747    0.1934 H   0  0  0  0  0  0  0  0  0  0  0  0
   -3.2425    0.6113   -1.4016 H   0  0  0  0  0  0  0  0  0  0  0  0
   -2.3688   -1.3460   -0.7293 H   0  0  0  0  0  0  0  0  0  0  0  0
   -0.7920   -1.6398    0.8690 H   0  0  0  0  0  0  0  0  0  0  0  0
   -0.6530    0.1284    1.1963 H   0  0  0  0  0  0  0  0  0  0  0  0
    0.2549   -0.9865   -1.4621 H   0  0  0  0  0  0  0  0  0  0  0  0
    1.8129   -1.9691    0.4574 H   0  0  0  0  0  0  0  0  0  0  0  0
    2.4835    2.1724   -0.1926 H   0  0  0  0  0  0  0  0  0  0  0  0
  1  2  1  0
  2  3  1  0
  3  4  1  0
  4  5  1  0
  5  6  1  0
  6  7  2  0
  6  8  1  0
  8  9  1  0
  9 10  2  0
  9  4  1  0
  1 11  1  0
  1 12  1  0
  2 13  1  0
  3 14  1  0
  3 15  1  0
  4 16  1  6
  5 17  1  0
  8 18  1  0
M  END
$$$$

     RDKit          3D

 18 18  0  0  0  0  0  0  0  0999 V2000
    3.0666   -0.3317    0.3651 N   0  0  0  0  0  0  0  0  0  0  0  0
    1.8275   -0.8540   -0.1357 N   0  0  0  0  0  0  0  0  0  0  0  0
    1.0111    0.3218   -0.4692 C   0  0  0  0  0  0  0  0  0  0  0  0
   -0.3304    0.1086    0.1354 C   0  0  2  0  0  0  0  0  0  0  0  0
   -1.0953   -1.0208   -0.2786 N   0  0  0  0  0  0  0  0  0  0  0  0
   -2.4202   -0.7297    0.1664 C   0  0  0  0  0  0  0  0  0  0  0  0
   -3.3384   -1.5562    0.4181 O   0  0  0  0  0  0  0  0  0  0  0  0
   -2.5551    0.6858    0.3250 N   0  0  0  0  0  0  0  0  0  0  0  0
   -1.2629    1.2172   -0.0633 C   0  0  0  0  0  0  0  0  0  0  0  0
   -1.0570    2.3931   -0.4647 O   0  0  0  0  0  0  0  0  0  0  0  0
    2.9740   -0.6256    1.4189 H   0  0  0  0  0  0  0  0  0  0  0  0
    3.0204    0.7315    0.3770 H   0  0  0  0  0  0  0  0  0  0  0  0
    2.0896   -1.3195   -1.0836 H   0  0  0  0  0  0  0  0  0  0  0  0
    1.4886    1.2259   -0.2196 H   0  0  0  0  0  0  0  0  0  0  0  0
    0.8619    0.2887   -1.6022 H   0  0  0  0  0  0  0  0  0  0  0  0
   -0.1525    0.0599    1.2678 H   0  0  0  0  0  0  0  0  0  0  0  0
   -0.7767   -1.8661   -0.7885 H   0  0  0  0  0  0  0  0  0  0  0  0
   -3.3515    1.2711    0.6316 H   0  0  0  0  0  0  0  0  0  0  0  0
  1  2  1  0
  2  3  1  0
  3  4  1  0
  4  5  1  0
  5  6  1  0
  6  7  2  0
  6  8  1  0
  8  9  1  0
  9 10  2  0
  9  4  1  0
  1 11  1  0
  1 12  1  0
  2 13  1  0
  3 14  1  0
  3 15  1  0
  4 16  1  1
  5 17  1  0
  8 18  1  0
M  END
$$$$

     RDKit          3D

 18 18  0  0  0  0  0  0  0  0999 V2000
    2.6842    0.2945    0.5808 N   0  0  0  0  0  0  0  0  0  0  0  0
    1.8885   -0.2953   -0.3563 N   0  0  0  0  0  0  0  0  0  0  0  0
    0.6281    0.2626   -0.7295 C   0  0  0  0  0  0  0  0  0  0  0  0
   -0.5240   -0.7328   -0.4442 C   0  0  2  0  0  0  0  0  0  0  0  0
   -1.7336   -0.1367   -0.9363 N   0  0  0  0  0  0  0  0  0  0  0  0
   -2.4332    0.3975    0.1712 C   0  0  0  0  0  0  0  0  0  0  0  0
   -3.5025    1.1214    0.1479 O   0  0  0  0  0  0  0  0  0  0  0  0
   -1.7540    0.0094    1.3173 N   0  0  0  0  0  0  0  0  0  0  0  0
   -0.6345   -0.7875    1.0199 C   0  0  0  0  0  0  0  0  0  0  0  0
    0.0421   -1.3592    1.8332 O   0  0  0  0  0  0  0  0  0  0  0  0
    3.6131   -0.1517    0.5980 H   0  0  0  0  0  0  0  0  0  0  0  0
    2.7380    1.2696    0.7935 H   0  0  0  0  0  0  0  0  0  0  0  0
    2.4806   -0.1870   -1.3275 H   0  0  0  0  0  0  0  0  0  0  0  0
    0.4163    1.2593   -0.2764 H   0  0  0  0  0  0  0  0  0  0  0  0
    0.5661    0.4134   -1.8261 H   0  0  0  0  0  0  0  0  0  0  0  0
   -0.3371   -1.6346   -1.0178 H   0  0  0  0  0  0  0  0  0  0  0  0
   -2.0178   -0.0558   -1.8965 H   0  0  0  0  0  0  0  0  0  0  0  0
   -2.1203    0.3130    2.3488 H   0  0  0  0  0  0  0  0  0  0  0  0
  1  2  1  0
  2  3  1  0
  3  4  1  0
  4  5  1  0
  5  6  1  0
  6  7  2  0
  6  8  1  0
  8  9  1  0
  9 10  2  0
  9  4  1  0
  1 11  1  0
  1 12  1  0
  2 13  1  0
  3 14  1  0
  3 15  1  0
  4 16  1  6
  5 17  1  0
  8 18  1  0
M  END
$$$$

     RDKit          3D

 18 18  0  0  0  0  0  0  0  0999 V2000
    3.0565   -0.6471    0.4916 N   0  0  0  0  0  0  0  0  0  0  0  0
    1.8817   -0.0219    0.1796 N   0  0  0  0  0  0  0  0  0  0  0  0
    0.7361   -0.8565   -0.0074 C   0  0  0  0  0  0  0  0  0  0  0  0
   -0.4336    0.0204   -0.3343 C   0  0  2  0  0  0  0  0  0  0  0  0
   -0.6452    0.9319    0.7714 N   0  0  0  0  0  0  0  0  0  0  0  0
   -2.0359    1.3013    0.6804 C   0  0  0  0  0  0  0  0  0  0  0  0
   -2.5310    2.3502    1.1756 O   0  0  0  0  0  0  0  0  0  0  0  0
   -2.7163    0.2681   -0.0622 N   0  0  0  0  0  0  0  0  0  0  0  0
   -1.7193   -0.6911   -0.3962 C   0  0  0  0  0  0  0  0  0  0  0  0
   -1.9960   -1.8867   -0.6732 O   0  0  0  0  0  0  0  0  0  0  0  0
    3.5567   -0.0579    1.2114 H   0  0  0  0  0  0  0  0  0  0  0  0
    3.7216   -0.7684   -0.2885 H   0  0  0  0  0  0  0  0  0  0  0  0
    1.7243    0.9240    0.5169 H   0  0  0  0  0  0  0  0  0  0  0  0
    0.8943   -1.6620   -0.7521 H   0  0  0  0  0  0  0  0  0  0  0  0
    0.5150   -1.3716    0.9599 H   0  0  0  0  0  0  0  0  0  0  0  0
   -0.2594    0.6076   -1.2610 H   0  0  0  0  0  0  0  0  0  0  0  0
   -0.0078    1.2945    1.5101 H   0  0  0  0  0  0  0  0  0  0  0  0
   -3.7417    0.2652   -0.2875 H   0  0  0  0  0  0  0  0  0  0  0  0
  1  2  1  0
  2  3  1  0
  3  4  1  0
  4  5  1  0
  5  6  1  0
  6  7  2  0
  6  8  1  0
  8  9  1  0
  9 10  2  0
  9  4  1  0
  1 11  1  0
  1 12  1  0
  2 13  1  0
  3 14  1  0
  3 15  1  0
  4 16  1  6
  5 17  1  0
  8 18  1  0
M  END
$$$$

     RDKit          3D

 18 18  0  0  0  0  0  0  0  0999 V2000
    2.9327    0.3460    0.4632 N   0  0  0  0  0  0  0  0  0  0  0  0
    1.8305   -0.4885    0.5384 N   0  0  0  0  0  0  0  0  0  0  0  0
    0.8206   -0.0055   -0.3447 C   0  0  0  0  0  0  0  0  0  0  0  0
   -0.4351   -0.8509   -0.3395 C   0  0  2  0  0  0  0  0  0  0  0  0
   -1.3586   -0.2399   -1.2764 N   0  0  0  0  0  0  0  0  0  0  0  0
   -2.0684    0.7656   -0.5644 C   0  0  0  0  0  0  0  0  0  0  0  0
   -2.6773    1.7397   -1.0733 O   0  0  0  0  0  0  0  0  0  0  0  0
   -1.9431    0.4364    0.8348 N   0  0  0  0  0  0  0  0  0  0  0  0
   -1.1651   -0.7537    0.9398 C   0  0  0  0  0  0  0  0  0  0  0  0
   -1.1433   -1.5219    1.9359 O   0  0  0  0  0  0  0  0  0  0  0  0
    3.2225    0.4089   -0.5356 H   0  0  0  0  0  0  0  0  0  0  0  0
    2.7443    1.3126    0.8142 H   0  0  0  0  0  0  0  0  0  0  0  0
    1.5259   -0.7191    1.4874 H   0  0  0  0  0  0  0  0  0  0  0  0
    1.2299   -0.0741   -1.3907 H   0  0  0  0  0  0  0  0  0  0  0  0
    0.5470    1.0517   -0.1934 H   0  0  0  0  0  0  0  0  0  0  0  0
   -0.2283   -1.8919   -0.6286 H   0  0  0  0  0  0  0  0  0  0  0  0
   -1.4775   -0.4992   -2.3005 H   0  0  0  0  0  0  0  0  0  0  0  0
   -2.3566    0.9839    1.6334 H   0  0  0  0  0  0  0  0  0  0  0  0
  1  2  1  0
  2  3  1  0
  3  4  1  0
  4  5  1  0
  5  6  1  0
  6  7  2  0
  6  8  1  0
  8  9  1  0
  9 10  2  0
  9  4  1  0
  1 11  1  0
  1 12  1  0
  2 13  1  0
  3 14  1  0
  3 15  1  0
  4 16  1  6
  5 17  1  0
  8 18  1  0
M  END
$$$$

     RDKit          3D

 18 18  0  0  0  0  0  0  0  0999 V2000
    3.0113    0.0853   -0.2435 N   0  0  0  0  0  0  0  0  0  0  0  0
    1.8798   -0.6018   -0.4494 N   0  0  0  0  0  0  0  0  0  0  0  0
    0.7476   -0.7460    0.3686 C   0  0  0  0  0  0  0  0  0  0  0  0
   -0.4712   -0.1667   -0.2356 C   0  0  2  0  0  0  0  0  0  0  0  0
   -0.6706    1.2814   -0.0917 N   0  0  0  0  0  0  0  0  0  0  0  0
   -2.1341    1.4581   -0.0393 C   0  0  0  0  0  0  0  0  0  0  0  0
   -2.7376    2.5486    0.0753 O   0  0  0  0  0  0  0  0  0  0  0  0
   -2.7650    0.1646   -0.1391 N   0  0  0  0  0  0  0  0  0  0  0  0
   -1.7505   -0.8158   -0.2218 C   0  0  0  0  0  0  0  0  0  0  0  0
   -1.9183   -2.0489   -0.3017 O   0  0  0  0  0  0  0  0  0  0  0  0
    3.6971   -0.0192   -0.9658 H   0  0  0  0  0  0  0  0  0  0  0  0
    3.2694    0.5853    0.4971 H   0  0  0  0  0  0  0  0  0  0  0  0
    2.2247   -1.8140   -0.5057 H   0  0  0  0  0  0  0  0  0  0  0  0
    0.9495   -0.0280    1.2841 H   0  0  0  0  0  0  0  0  0  0  0  0
    0.6137   -1.6988    0.8006 H   0  0  0  0  0  0  0  0  0  0  0  0
   -0.1984   -0.1571   -1.4336 H   0  0  0  0  0  0  0  0  0  0  0  0
    0.0491    2.0354    0.0343 H   0  0  0  0  0  0  0  0  0  0  0  0
   -3.7965   -0.0622   -0.1426 H   0  0  0  0  0  0  0  0  0  0  0  0
  1  2  1  0
  2  3  1  0
  3  4  1  0
  4  5  1  0
  5  6  1  0
  6  7  2  0
  6  8  1  0
  8  9  1  0
  9 10  2  0
  9  4  1  0
  1 11  1  0
  1 12  1  0
  2 13  1  0
  3 14  1  0
  3 15  1  0
  4 16  1  6
  5 17  1  0
  8 18  1  0
M  END
$$$$

     RDKit          3D

 18 18  0  0  0  0  0  0  0  0999 V2000
   -3.1244    0.5364   -0.0714 N   0  0  0  0  0  0  0  0  0  0  0  0
   -1.9412   -0.1399   -0.1594 N   0  0  0  0  0  0  0  0  0  0  0  0
   -0.7775    0.6829   -0.2499 C   0  0  0  0  0  0  0  0  0  0  0  0
    0.5063   -0.1010   -0.3452 C   0  0  2  0  0  0  0  0  0  0  0  0
    0.7139   -0.9543    0.8025 N   0  0  0  0  0  0  0  0  0  0  0  0
    2.1192   -1.1485    0.9096 C   0  0  0  0  0  0  0  0  0  0  0  0
    2.7277   -2.0977    1.4868 O   0  0  0  0  0  0  0  0  0  0  0  0
    2.7441   -0.0514    0.2310 N   0  0  0  0  0  0  0  0  0  0  0  0
    1.6956    0.7882   -0.2752 C   0  0  0  0  0  0  0  0  0  0  0  0
    1.8070    2.0041   -0.5788 O   0  0  0  0  0  0  0  0  0  0  0  0
   -3.6119    0.6469   -0.9815 H   0  0  0  0  0  0  0  0  0  0  0  0
   -3.7640    0.0425    0.5875 H   0  0  0  0  0  0  0  0  0  0  0  0
   -1.8480   -0.9841    0.4146 H   0  0  0  0  0  0  0  0  0  0  0  0
   -0.8639    1.2962   -1.1698 H   0  0  0  0  0  0  0  0  0  0  0  0
   -0.7378    1.3852    0.6045 H   0  0  0  0  0  0  0  0  0  0  0  0
    0.5518   -0.6605   -1.3017 H   0  0  0  0  0  0  0  0  0  0  0  0
    0.0262   -1.3761    1.4596 H   0  0  0  0  0  0  0  0  0  0  0  0
    3.7768    0.1311    0.1101 H   0  0  0  0  0  0  0  0  0  0  0  0
  1  2  1  0
  2  3  1  0
  3  4  1  0
  4  5  1  0
  5  6  1  0
  6  7  2  0
  6  8  1  0
  8  9  1  0
  9 10  2  0
  9  4  1  0
  1 11  1  0
  1 12  1  0
  2 13  1  0
  3 14  1  0
  3 15  1  0
  4 16  1  6
  5 17  1  0
  8 18  1  0
M  END
$$$$

     RDKit          3D

 18 18  0  0  0  0  0  0  0  0999 V2000
    2.8936   -0.7344   -0.0254 N   0  0  0  0  0  0  0  0  0  0  0  0
    1.5874   -0.3253   -0.2754 N   0  0  0  0  0  0  0  0  0  0  0  0
    0.8140   -0.4669    0.9273 C   0  0  0  0  0  0  0  0  0  0  0  0
   -0.6182   -0.0493    0.7617 C   0  0  2  0  0  0  0  0  0  0  0  0
   -1.3143   -0.8191   -0.2439 N   0  0  0  0  0  0  0  0  0  0  0  0
   -2.4006    0.0298   -0.6646 C   0  0  0  0  0  0  0  0  0  0  0  0
   -3.4562   -0.3546   -1.2342 O   0  0  0  0  0  0  0  0  0  0  0  0
   -2.0728    1.3889   -0.3230 N   0  0  0  0  0  0  0  0  0  0  0  0
   -0.7929    1.3266    0.2974 C   0  0  0  0  0  0  0  0  0  0  0  0
   -0.0372    2.3362    0.3732 O   0  0  0  0  0  0  0  0  0  0  0  0
    3.5201   -0.2302   -0.6864 H   0  0  0  0  0  0  0  0  0  0  0  0
    3.0321   -1.7526   -0.0810 H   0  0  0  0  0  0  0  0  0  0  0  0
    1.6410    0.7118   -0.4854 H   0  0  0  0  0  0  0  0  0  0  0  0
    1.2551    0.1766    1.7165 H   0  0  0  0  0  0  0  0  0  0  0  0
    0.8415   -1.5192    1.2372 H   0  0  0  0  0  0  0  0  0  0  0  0
   -1.1136   -0.1916    1.7536 H   0  0  0  0  0  0  0  0  0  0  0  0
   -1.1107   -1.7652   -0.6058 H   0  0  0  0  0  0  0  0  0  0  0  0
   -2.6684    2.2386   -0.5027 H   0  0  0  0  0  0  0  0  0  0  0  0
  1  2  1  0
  2  3  1  0
  3  4  1  0
  4  5  1  0
  5  6  1  0
  6  7  2  0
  6  8  1  0
  8  9  1  0
  9 10  2  0
  9  4  1  0
  1 11  1  0
  1 12  1  0
  2 13  1  0
  3 14  1  0
  3 15  1  0
  4 16  1  1
  5 17  1  0
  8 18  1  0
M  END
$$$$
