
     RDKit          3D

 20 20  0  0  0  0  0  0  0  0999 V2000
   -3.1658    0.3066   -0.0973 O   0  0  0  0  0  0  0  0  0  0  0  0
   -2.1021    1.0870    0.2805 C   0  0  0  0  0  0  0  0  0  0  0  0
   -0.7963    0.6400   -0.3256 C   0  0  1  0  0  0  0  0  0  0  0  0
    0.5081    1.7856    0.2813 S   0  0  0  0  0  0  0  0  0  0  0  0
    1.8465    0.5334    0.2535 C   0  0  2  0  0  0  0  0  0  0  0  0
    2.6240    0.8563   -0.8831 O   0  0  0  0  0  0  0  0  0  0  0  0
    1.1534   -0.7604    0.0720 C   0  0  2  0  0  0  0  0  0  0  0  0
    1.5292   -1.3129   -1.1507 O   0  0  0  0  0  0  0  0  0  0  0  0
   -0.2971   -0.6339    0.2626 C   0  0  2  0  0  0  0  0  0  0  0  0
   -0.9678   -1.6867   -0.4001 O   0  0  0  0  0  0  0  0  0  0  0  0
   -3.0328   -0.6557   -0.0284 H   0  0  0  0  0  0  0  0  0  0  0  0
   -2.3023    2.1250   -0.0449 H   0  0  0  0  0  0  0  0  0  0  0  0
   -1.9531    1.1035    1.3878 H   0  0  0  0  0  0  0  0  0  0  0  0
   -0.7723    0.6938   -1.4146 H   0  0  0  0  0  0  0  0  0  0  0  0
    2.5003    0.6139    1.1189 H   0  0  0  0  0  0  0  0  0  0  0  0
    2.8898    1.8075   -0.7965 H   0  0  0  0  0  0  0  0  0  0  0  0
    1.5521   -1.4733    0.8534 H   0  0  0  0  0  0  0  0  0  0  0  0
    1.7235   -2.2967   -1.0686 H   0  0  0  0  0  0  0  0  0  0  0  0
   -0.5954   -0.6738    1.3322 H   0  0  0  0  0  0  0  0  0  0  0  0
   -0.3418   -2.0592   -1.0690 H   0  0  0  0  0  0  0  0  0  0  0  0
  1  2  1  0
  2  3  1  0
  3  4  1  0
  4  5  1  0
  5  6  1  0
  5  7  1  0
  7  8  1  0
  7  9  1  0
  9 10  1  0
  9  3  1  0
  1 11  1  0
  2 12  1  0
  2 13  1  0
  3 14  1  6
  5 15  1  1
  6 16  1  0
  7 17  1  1
  8 18  1  0
  9 19  1  1
 10 20  1  0
M  END
$$$$

     RDKit          3D

 20 20  0  0  0  0  0  0  0  0999 V2000
    3.1770   -0.2899   -0.3603 O   0  0  0  0  0  0  0  0  0  0  0  0
    2.2238    0.5588    0.2233 C   0  0  0  0  0  0  0  0  0  0  0  0
    0.8755    0.1170   -0.2806 C   0  0  1  0  0  0  0  0  0  0  0  0
    0.5562   -1.6280    0.1999 S   0  0  0  0  0  0  0  0  0  0  0  0
   -1.2648   -1.4312    0.2807 C   0  0  2  0  0  0  0  0  0  0  0  0
   -1.7573   -1.9129   -0.9389 O   0  0  0  0  0  0  0  0  0  0  0  0
   -1.4820    0.0320    0.3247 C   0  0  2  0  0  0  0  0  0  0  0  0
   -2.2503    0.4817   -0.7666 O   0  0  0  0  0  0  0  0  0  0  0  0
   -0.2301    0.7786    0.4585 C   0  0  2  0  0  0  0  0  0  0  0  0
   -0.4074    2.0647   -0.0858 O   0  0  0  0  0  0  0  0  0  0  0  0
    3.1729   -1.1896    0.0658 H   0  0  0  0  0  0  0  0  0  0  0  0
    2.2523    0.4928    1.3208 H   0  0  0  0  0  0  0  0  0  0  0  0
    2.4076    1.5705   -0.1773 H   0  0  0  0  0  0  0  0  0  0  0  0
    0.8264    0.1756   -1.3675 H   0  0  0  0  0  0  0  0  0  0  0  0
   -1.6816   -1.9784    1.1489 H   0  0  0  0  0  0  0  0  0  0  0  0
   -1.0683   -2.2581   -1.5307 H   0  0  0  0  0  0  0  0  0  0  0  0
   -2.1254    0.2531    1.2272 H   0  0  0  0  0  0  0  0  0  0  0  0
   -2.6315    1.3652   -0.4788 H   0  0  0  0  0  0  0  0  0  0  0  0
    0.0737    0.8982    1.5197 H   0  0  0  0  0  0  0  0  0  0  0  0
   -0.6665    1.9000   -1.0464 H   0  0  0  0  0  0  0  0  0  0  0  0
  1  2  1  0
  2  3  1  0
  3  4  1  0
  4  5  1  0
  5  6  1  0
  5  7  1  0
  7  8  1  0
  7  9  1  0
  9 10  1  0
  9  3  1  0
  1 11  1  0
  2 12  1  0
  2 13  1  0
  3 14  1  6
  5 15  1  1
  6 16  1  0
  7 17  1  1
  8 18  1  0
  9 19  1  1
 10 20  1  0
M  END
$$$$

     RDKit          3D

 20 20  0  0  0  0  0  0  0  0999 V2000
   -2.9879    0.0910   -0.4291 O   0  0  0  0  0  0  0  0  0  0  0  0
   -2.0995   -0.7591    0.2006 C   0  0  0  0  0  0  0  0  0  0  0  0
   -0.8593   -0.0424    0.6614 C   0  0  1  0  0  0  0  0  0  0  0  0
    0.2638   -1.2088    1.4776 S   0  0  0  0  0  0  0  0  0  0  0  0
    1.7699   -0.7016    0.5487 C   0  0  2  0  0  0  0  0  0  0  0  0
    2.3912    0.2616    1.3090 O   0  0  0  0  0  0  0  0  0  0  0  0
    1.1510   -0.2111   -0.7085 C   0  0  2  0  0  0  0  0  0  0  0  0
    2.0644    0.6128   -1.4053 O   0  0  0  0  0  0  0  0  0  0  0  0
   -0.0617    0.5670   -0.4297 C   0  0  2  0  0  0  0  0  0  0  0  0
    0.2805    1.9014   -0.1673 O   0  0  0  0  0  0  0  0  0  0  0  0
   -3.3063    0.8315    0.1587 H   0  0  0  0  0  0  0  0  0  0  0  0
   -2.6161   -1.1591    1.1008 H   0  0  0  0  0  0  0  0  0  0  0  0
   -1.8851   -1.5990   -0.4523 H   0  0  0  0  0  0  0  0  0  0  0  0
   -1.1188    0.7371    1.4001 H   0  0  0  0  0  0  0  0  0  0  0  0
    2.3976   -1.5914    0.3511 H   0  0  0  0  0  0  0  0  0  0  0  0
    2.4167   -0.0754    2.2459 H   0  0  0  0  0  0  0  0  0  0  0  0
    0.8960   -1.0830   -1.3426 H   0  0  0  0  0  0  0  0  0  0  0  0
    2.1108    0.3068   -2.3456 H   0  0  0  0  0  0  0  0  0  0  0  0
   -0.6905    0.5913   -1.3673 H   0  0  0  0  0  0  0  0  0  0  0  0
   -0.1166    2.5303   -0.8063 H   0  0  0  0  0  0  0  0  0  0  0  0
  1  2  1  0
  2  3  1  0
  3  4  1  0
  4  5  1  0
  5  6  1  0
  5  7  1  0
  7  8  1  0
  7  9  1  0
  9 10  1  0
  9  3  1  0
  1 11  1  0
  2 12  1  0
  2 13  1  0
  3 14  1  1
  5 15  1  6
  6 16  1  0
  7 17  1  6
  8 18  1  0
  9 19  1  6
 10 20  1  0
M  END
$$$$

     RDKit          3D

 20 20  0  0  0  0  0  0  0  0999 V2000
   -2.3003    0.3987   -1.1738 O   0  0  0  0  0  0  0  0  0  0  0  0
   -2.3031   -0.1052    0.1073 C   0  0  0  0  0  0  0  0  0  0  0  0
   -0.9411   -0.4775    0.6101 C   0  0  1  0  0  0  0  0  0  0  0  0
   -0.1755   -1.7594   -0.4486 S   0  0  0  0  0  0  0  0  0  0  0  0
    1.4162   -0.8703   -0.6948 C   0  0  2  0  0  0  0  0  0  0  0  0
    2.2042   -1.1558    0.4086 O   0  0  0  0  0  0  0  0  0  0  0  0
    0.8989    0.5483   -0.6092 C   0  0  2  0  0  0  0  0  0  0  0  0
    2.0315    1.3632   -0.3850 O   0  0  0  0  0  0  0  0  0  0  0  0
    0.0457    0.6258    0.6136 C   0  0  2  0  0  0  0  0  0  0  0  0
    0.8962    0.5764    1.7390 O   0  0  0  0  0  0  0  0  0  0  0  0
   -2.5543   -0.3039   -1.8325 H   0  0  0  0  0  0  0  0  0  0  0  0
   -2.9114   -1.0501    0.0951 H   0  0  0  0  0  0  0  0  0  0  0  0
   -2.7775    0.5458    0.8543 H   0  0  0  0  0  0  0  0  0  0  0  0
   -1.0494   -0.9310    1.6092 H   0  0  0  0  0  0  0  0  0  0  0  0
    1.8626   -1.1017   -1.6483 H   0  0  0  0  0  0  0  0  0  0  0  0
    3.0417   -0.6530    0.3288 H   0  0  0  0  0  0  0  0  0  0  0  0
    0.3887    0.8054   -1.5381 H   0  0  0  0  0  0  0  0  0  0  0  0
    1.9349    2.1501   -0.9534 H   0  0  0  0  0  0  0  0  0  0  0  0
   -0.4282    1.6266    0.6328 H   0  0  0  0  0  0  0  0  0  0  0  0
    0.7200   -0.2323    2.2848 H   0  0  0  0  0  0  0  0  0  0  0  0
  1  2  1  0
  2  3  1  0
  3  4  1  0
  4  5  1  0
  5  6  1  0
  5  7  1  0
  7  8  1  0
  7  9  1  0
  9 10  1  0
  9  3  1  0
  1 11  1  0
  2 12  1  0
  2 13  1  0
  3 14  1  1
  5 15  1  6
  6 16  1  0
  7 17  1  6
  8 18  1  0
  9 19  1  6
 10 20  1  0
M  END
$$$$

     RDKit          3D

 20 20  0  0  0  0  0  0  0  0999 V2000
    2.9351   -0.6658    0.5118 O   0  0  0  0  0  0  0  0  0  0  0  0
    2.0789   -0.6028   -0.5853 C   0  0  0  0  0  0  0  0  0  0  0  0
    0.8789    0.2371   -0.2323 C   0  0  1  0  0  0  0  0  0  0  0  0
   -0.2745    0.3399   -1.6648 S   0  0  0  0  0  0  0  0  0  0  0  0
   -1.8062   -0.0553   -0.7171 C   0  0  2  0  0  0  0  0  0  0  0  0
   -2.8648    0.7168   -1.1340 O   0  0  0  0  0  0  0  0  0  0  0  0
   -1.3018    0.3793    0.6667 C   0  0  2  0  0  0  0  0  0  0  0  0
   -0.9037    1.7228    0.5920 O   0  0  0  0  0  0  0  0  0  0  0  0
   -0.0318   -0.4413    0.7730 C   0  0  2  0  0  0  0  0  0  0  0  0
    0.4941   -0.4230    2.0552 O   0  0  0  0  0  0  0  0  0  0  0  0
    3.4357    0.1927    0.6259 H   0  0  0  0  0  0  0  0  0  0  0  0
    1.8286   -1.6082   -0.9134 H   0  0  0  0  0  0  0  0  0  0  0  0
    2.6247   -0.0669   -1.3831 H   0  0  0  0  0  0  0  0  0  0  0  0
    1.1189    1.2486    0.0695 H   0  0  0  0  0  0  0  0  0  0  0  0
   -1.9834   -1.1287   -0.6990 H   0  0  0  0  0  0  0  0  0  0  0  0
   -3.0043    0.5420   -2.0943 H   0  0  0  0  0  0  0  0  0  0  0  0
   -2.0213    0.1788    1.4508 H   0  0  0  0  0  0  0  0  0  0  0  0
   -0.9805    2.0789   -0.3293 H   0  0  0  0  0  0  0  0  0  0  0  0
   -0.2579   -1.4742    0.4577 H   0  0  0  0  0  0  0  0  0  0  0  0
    0.0353   -1.1706    2.5500 H   0  0  0  0  0  0  0  0  0  0  0  0
  1  2  1  0
  2  3  1  0
  3  4  1  0
  4  5  1  0
  5  6  1  0
  5  7  1  0
  7  8  1  0
  7  9  1  0
  9 10  1  0
  9  3  1  0
  1 11  1  0
  2 12  1  0
  2 13  1  0
  3 14  1  1
  5 15  1  1
  6 16  1  0
  7 17  1  1
  8 18  1  0
  9 19  1  6
 10 20  1  0
M  END
$$$$

     RDKit          3D

 20 20  0  0  0  0  0  0  0  0999 V2000
    2.9921   -1.1875   -0.6128 O   0  0  0  0  0  0  0  0  0  0  0  0
    2.2382   -0.2186    0.0200 C   0  0  0  0  0  0  0  0  0  0  0  0
    0.7917   -0.2130   -0.4597 C   0  0  1  0  0  0  0  0  0  0  0  0
    0.0171   -1.8395   -0.1227 S   0  0  0  0  0  0  0  0  0  0  0  0
   -1.5061   -1.1991    0.6753 C   0  0  2  0  0  0  0  0  0  0  0  0
   -2.5903   -1.6422   -0.0815 O   0  0  0  0  0  0  0  0  0  0  0  0
   -1.3757    0.2801    0.5451 C   0  0  2  0  0  0  0  0  0  0  0  0
   -2.1720    0.8110   -0.4880 O   0  0  0  0  0  0  0  0  0  0  0  0
    0.0292    0.6818    0.4474 C   0  0  2  0  0  0  0  0  0  0  0  0
    0.0842    1.9834   -0.1004 O   0  0  0  0  0  0  0  0  0  0  0  0
    3.9363   -0.8530   -0.6521 H   0  0  0  0  0  0  0  0  0  0  0  0
    2.2013   -0.3313    1.1203 H   0  0  0  0  0  0  0  0  0  0  0  0
    2.6283    0.8013   -0.1966 H   0  0  0  0  0  0  0  0  0  0  0  0
    0.7024    0.0347   -1.5257 H   0  0  0  0  0  0  0  0  0  0  0  0
   -1.5461   -1.5678    1.7035 H   0  0  0  0  0  0  0  0  0  0  0  0
   -3.4198   -1.2966    0.2939 H   0  0  0  0  0  0  0  0  0  0  0  0
   -1.8020    0.7251    1.4892 H   0  0  0  0  0  0  0  0  0  0  0  0
   -2.3214    1.7765   -0.3152 H   0  0  0  0  0  0  0  0  0  0  0  0
    0.5113    0.6912    1.4523 H   0  0  0  0  0  0  0  0  0  0  0  0
    0.6012    2.5635    0.5030 H   0  0  0  0  0  0  0  0  0  0  0  0
  1  2  1  0
  2  3  1  0
  3  4  1  0
  4  5  1  0
  5  6  1  0
  5  7  1  0
  7  8  1  0
  7  9  1  0
  9 10  1  0
  9  3  1  0
  1 11  1  0
  2 12  1  0
  2 13  1  0
  3 14  1  6
  5 15  1  1
  6 16  1  0
  7 17  1  1
  8 18  1  0
  9 19  1  1
 10 20  1  0
M  END
$$$$

     RDKit          3D

 20 20  0  0  0  0  0  0  0  0999 V2000
    3.0281   -0.0283   -0.3065 O   0  0  0  0  0  0  0  0  0  0  0  0
    2.0528    0.9041   -0.0273 C   0  0  0  0  0  0  0  0  0  0  0  0
    0.8025    0.1848    0.3896 C   0  0  1  0  0  0  0  0  0  0  0  0
   -0.5337    1.3886    0.7744 S   0  0  0  0  0  0  0  0  0  0  0  0
   -1.8390    0.6427   -0.2844 C   0  0  2  0  0  0  0  0  0  0  0  0
   -3.0561    0.6779    0.3377 O   0  0  0  0  0  0  0  0  0  0  0  0
   -1.2803   -0.7808   -0.3971 C   0  0  2  0  0  0  0  0  0  0  0  0
   -1.4122   -1.4302    0.8139 O   0  0  0  0  0  0  0  0  0  0  0  0
    0.1532   -0.5311   -0.7900 C   0  0  2  0  0  0  0  0  0  0  0  0
    0.8285   -1.6729   -1.1469 O   0  0  0  0  0  0  0  0  0  0  0  0
    3.6977   -0.0693    0.4010 H   0  0  0  0  0  0  0  0  0  0  0  0
    2.3833    1.5645    0.7792 H   0  0  0  0  0  0  0  0  0  0  0  0
    1.8519    1.5013   -0.9448 H   0  0  0  0  0  0  0  0  0  0  0  0
    1.0133   -0.4723    1.2295 H   0  0  0  0  0  0  0  0  0  0  0  0
   -1.7987    1.0700   -1.2859 H   0  0  0  0  0  0  0  0  0  0  0  0
   -3.4911    1.5400    0.1192 H   0  0  0  0  0  0  0  0  0  0  0  0
   -1.7527   -1.3371   -1.2145 H   0  0  0  0  0  0  0  0  0  0  0  0
   -1.1275   -0.8454    1.5443 H   0  0  0  0  0  0  0  0  0  0  0  0
    0.1452    0.1940   -1.6289 H   0  0  0  0  0  0  0  0  0  0  0  0
    0.3349   -2.5006   -0.9047 H   0  0  0  0  0  0  0  0  0  0  0  0
  1  2  1  0
  2  3  1  0
  3  4  1  0
  4  5  1  0
  5  6  1  0
  5  7  1  0
  7  8  1  0
  7  9  1  0
  9 10  1  0
  9  3  1  0
  1 11  1  0
  2 12  1  0
  2 13  1  0
  3 14  1  1
  5 15  1  6
  6 16  1  0
  7 17  1  6
  8 18  1  0
  9 19  1  6
 10 20  1  0
M  END
$$$$

     RDKit          3D

 20 20  0  0  0  0  0  0  0  0999 V2000
    2.1310    0.5372    0.9457 O   0  0  0  0  0  0  0  0  0  0  0  0
    2.1555   -0.7328    0.3913 C   0  0  0  0  0  0  0  0  0  0  0  0
    0.7091   -1.0904    0.0251 C   0  0  1  0  0  0  0  0  0  0  0  0
   -0.2183   -1.0293    1.6051 S   0  0  0  0  0  0  0  0  0  0  0  0
   -1.0901    0.5438    1.2323 C   0  0  2  0  0  0  0  0  0  0  0  0
   -2.3681    0.5322    1.7790 O   0  0  0  0  0  0  0  0  0  0  0  0
   -1.1674    0.4390   -0.2546 C   0  0  2  0  0  0  0  0  0  0  0  0
   -2.2383   -0.3826   -0.5961 O   0  0  0  0  0  0  0  0  0  0  0  0
    0.1295    0.0022   -0.7998 C   0  0  2  0  0  0  0  0  0  0  0  0
   -0.0722   -0.5152   -2.0976 O   0  0  0  0  0  0  0  0  0  0  0  0
    2.8375    1.1338    0.5864 H   0  0  0  0  0  0  0  0  0  0  0  0
    2.7731   -0.8190   -0.5050 H   0  0  0  0  0  0  0  0  0  0  0  0
    2.5440   -1.4322    1.1747 H   0  0  0  0  0  0  0  0  0  0  0  0
    0.6742   -2.0844   -0.4222 H   0  0  0  0  0  0  0  0  0  0  0  0
   -0.4797    1.3864    1.5582 H   0  0  0  0  0  0  0  0  0  0  0  0
   -2.9188    1.1522    1.2325 H   0  0  0  0  0  0  0  0  0  0  0  0
   -1.3900    1.4646   -0.6595 H   0  0  0  0  0  0  0  0  0  0  0  0
   -2.4620   -0.1689   -1.5369 H   0  0  0  0  0  0  0  0  0  0  0  0
    0.8191    0.8674   -0.9409 H   0  0  0  0  0  0  0  0  0  0  0  0
   -0.3681    0.1959   -2.7176 H   0  0  0  0  0  0  0  0  0  0  0  0
  1  2  1  0
  2  3  1  0
  3  4  1  0
  4  5  1  0
  5  6  1  0
  5  7  1  0
  7  8  1  0
  7  9  1  0
  9 10  1  0
  9  3  1  0
  1 11  1  0
  2 12  1  0
  2 13  1  0
  3 14  1  6
  5 15  1  6
  6 16  1  0
  7 17  1  6
  8 18  1  0
  9 19  1  6
 10 20  1  0
M  END
$$$$
