
     RDKit          3D

 31 31  0  0  0  0  0  0  0  0999 V2000
    3.7069   -1.5344   -0.6640 C   0  0  0  0  0  0  0  0  0  0  0  0
    2.9728   -0.3450   -0.3126 N   0  0  0  0  0  0  0  0  0  0  0  0
    3.6991    0.8718   -0.0794 C   0  0  0  0  0  0  0  0  0  0  0  0
    1.5733   -0.3659   -0.1870 C   0  0  0  0  0  0  0  0  0  0  0  0
    1.0185   -1.4787   -0.3835 O   0  0  0  0  0  0  0  0  0  0  0  0
    0.8566    0.8681    0.1538 C   0  0  0  0  0  0  0  0  0  0  0  0
   -0.5227    0.8475    0.2881 N   0  0  0  0  0  0  0  0  0  0  0  0
   -1.1841    0.2078    1.3305 C   0  0  0  0  0  0  0  0  0  0  0  0
   -2.0807   -0.8991    0.8853 C   0  0  0  0  0  0  0  0  0  0  0  0
   -3.0322   -0.3638   -0.0648 N   0  0  0  0  0  0  0  0  0  0  0  0
   -4.2102   -1.0977   -0.3214 C   0  0  0  0  0  0  0  0  0  0  0  0
   -4.3711   -2.1911    0.3163 O   0  0  0  0  0  0  0  0  0  0  0  0
   -2.7601    0.8936   -0.7139 C   0  0  0  0  0  0  0  0  0  0  0  0
   -1.3068    1.2084   -0.8498 C   0  0  0  0  0  0  0  0  0  0  0  0
    3.0689   -2.4465   -0.7065 H   0  0  0  0  0  0  0  0  0  0  0  0
    4.0878   -1.3962   -1.7019 H   0  0  0  0  0  0  0  0  0  0  0  0
    4.5538   -1.7633    0.0008 H   0  0  0  0  0  0  0  0  0  0  0  0
    3.0121    1.7165   -0.0140 H   0  0  0  0  0  0  0  0  0  0  0  0
    4.1740    0.7967    0.9471 H   0  0  0  0  0  0  0  0  0  0  0  0
    4.4870    1.0022   -0.8543 H   0  0  0  0  0  0  0  0  0  0  0  0
    1.1077    1.6219   -0.6451 H   0  0  0  0  0  0  0  0  0  0  0  0
    1.3211    1.2722    1.0778 H   0  0  0  0  0  0  0  0  0  0  0  0
   -0.5077   -0.0726    2.1612 H   0  0  0  0  0  0  0  0  0  0  0  0
   -1.8831    0.9558    1.8253 H   0  0  0  0  0  0  0  0  0  0  0  0
   -2.6311   -1.3683    1.7590 H   0  0  0  0  0  0  0  0  0  0  0  0
   -1.5754   -1.7539    0.3951 H   0  0  0  0  0  0  0  0  0  0  0  0
   -4.9697   -0.8071   -1.0064 H   0  0  0  0  0  0  0  0  0  0  0  0
   -3.2823    1.6950   -0.1400 H   0  0  0  0  0  0  0  0  0  0  0  0
   -3.2027    0.9103   -1.7277 H   0  0  0  0  0  0  0  0  0  0  0  0
   -1.1985    2.3030   -1.0470 H   0  0  0  0  0  0  0  0  0  0  0  0
   -0.9213    0.7129   -1.7904 H   0  0  0  0  0  0  0  0  0  0  0  0
  1  2  1  0
  2  3  1  0
  2  4  1  0
  4  5  2  0
  4  6  1  0
  6  7  1  0
  7  8  1  0
  8  9  1  0
  9 10  1  0
 10 11  1  0
 11 12  2  0
 10 13  1  0
 13 14  1  0
 14  7  1  0
  1 15  1  0
  1 16  1  0
  1 17  1  0
  3 18  1  0
  3 19  1  0
  3 20  1  0
  6 21  1  0
  6 22  1  0
  8 23  1  0
  8 24  1  0
  9 25  1  0
  9 26  1  0
 11 27  1  0
 13 28  1  0
 13 29  1  0
 14 30  1  0
 14 31  1  0
M  END
$$$$

     RDKit          3D

 31 31  0  0  0  0  0  0  0  0999 V2000
   -4.2874   -0.0266   -0.5014 C   0  0  0  0  0  0  0  0  0  0  0  0
   -3.1467   -0.4128    0.3139 N   0  0  0  0  0  0  0  0  0  0  0  0
   -3.3702   -0.7532    1.7041 C   0  0  0  0  0  0  0  0  0  0  0  0
   -1.8607   -0.4297   -0.2668 C   0  0  0  0  0  0  0  0  0  0  0  0
   -1.6906   -0.0576   -1.4758 O   0  0  0  0  0  0  0  0  0  0  0  0
   -0.6689   -0.8773    0.4756 C   0  0  0  0  0  0  0  0  0  0  0  0
    0.5490   -0.7976   -0.2805 N   0  0  0  0  0  0  0  0  0  0  0  0
    1.6304   -1.5373    0.2883 C   0  0  0  0  0  0  0  0  0  0  0  0
    2.8030   -1.3448   -0.6984 C   0  0  0  0  0  0  0  0  0  0  0  0
    3.1964    0.0484   -0.4362 N   0  0  0  0  0  0  0  0  0  0  0  0
    4.5543    0.3416   -0.2507 C   0  0  0  0  0  0  0  0  0  0  0  0
    4.9920    1.5209   -0.0267 O   0  0  0  0  0  0  0  0  0  0  0  0
    2.1266    1.0094   -0.3631 C   0  0  0  0  0  0  0  0  0  0  0  0
    0.8390    0.4311   -0.8789 C   0  0  0  0  0  0  0  0  0  0  0  0
   -5.2542   -0.1113    0.0395 H   0  0  0  0  0  0  0  0  0  0  0  0
   -4.1524    0.9701   -0.9497 H   0  0  0  0  0  0  0  0  0  0  0  0
   -4.3768   -0.7502   -1.3674 H   0  0  0  0  0  0  0  0  0  0  0  0
   -4.0089   -1.6536    1.7491 H   0  0  0  0  0  0  0  0  0  0  0  0
   -3.9794    0.0665    2.1497 H   0  0  0  0  0  0  0  0  0  0  0  0
   -2.4267   -0.8284    2.2685 H   0  0  0  0  0  0  0  0  0  0  0  0
   -0.7720   -1.9270    0.8164 H   0  0  0  0  0  0  0  0  0  0  0  0
   -0.5406   -0.2512    1.4052 H   0  0  0  0  0  0  0  0  0  0  0  0
    1.3677   -2.5951    0.3745 H   0  0  0  0  0  0  0  0  0  0  0  0
    1.9455   -1.0501    1.2248 H   0  0  0  0  0  0  0  0  0  0  0  0
    3.5494   -2.0818   -0.4366 H   0  0  0  0  0  0  0  0  0  0  0  0
    2.4394   -1.4603   -1.7380 H   0  0  0  0  0  0  0  0  0  0  0  0
    5.2921   -0.4340   -0.2926 H   0  0  0  0  0  0  0  0  0  0  0  0
    2.4036    1.9333   -0.9322 H   0  0  0  0  0  0  0  0  0  0  0  0
    1.9261    1.3257    0.7156 H   0  0  0  0  0  0  0  0  0  0  0  0
    0.8989    0.3647   -2.0075 H   0  0  0  0  0  0  0  0  0  0  0  0
    0.0219    1.1586   -0.6229 H   0  0  0  0  0  0  0  0  0  0  0  0
  1  2  1  0
  2  3  1  0
  2  4  1  0
  4  5  2  0
  4  6  1  0
  6  7  1  0
  7  8  1  0
  8  9  1  0
  9 10  1  0
 10 11  1  0
 11 12  2  0
 10 13  1  0
 13 14  1  0
 14  7  1  0
  1 15  1  0
  1 16  1  0
  1 17  1  0
  3 18  1  0
  3 19  1  0
  3 20  1  0
  6 21  1  0
  6 22  1  0
  8 23  1  0
  8 24  1  0
  9 25  1  0
  9 26  1  0
 11 27  1  0
 13 28  1  0
 13 29  1  0
 14 30  1  0
 14 31  1  0
M  END
$$$$

     RDKit          3D

 31 31  0  0  0  0  0  0  0  0999 V2000
   -4.2325   -0.5325    1.0057 C   0  0  0  0  0  0  0  0  0  0  0  0
   -3.2033    0.0020    0.1268 N   0  0  0  0  0  0  0  0  0  0  0  0
   -3.6263    0.7254   -1.0820 C   0  0  0  0  0  0  0  0  0  0  0  0
   -1.8219   -0.1536    0.4028 C   0  0  0  0  0  0  0  0  0  0  0  0
   -1.5015   -0.7749    1.4431 O   0  0  0  0  0  0  0  0  0  0  0  0
   -0.7946    0.3843   -0.4823 C   0  0  0  0  0  0  0  0  0  0  0  0
    0.5355    0.1710   -0.1048 N   0  0  0  0  0  0  0  0  0  0  0  0
    1.0731   -1.1287   -0.1260 C   0  0  0  0  0  0  0  0  0  0  0  0
    2.3170   -1.1127   -1.0111 C   0  0  0  0  0  0  0  0  0  0  0  0
    3.2640   -0.2691   -0.2676 N   0  0  0  0  0  0  0  0  0  0  0  0
    4.6308   -0.6045   -0.2452 C   0  0  0  0  0  0  0  0  0  0  0  0
    5.4379    0.1077    0.3855 O   0  0  0  0  0  0  0  0  0  0  0  0
    2.8036    0.9085    0.4457 C   0  0  0  0  0  0  0  0  0  0  0  0
    1.3912    1.2754    0.0717 C   0  0  0  0  0  0  0  0  0  0  0  0
   -4.6767   -1.4255    0.5532 H   0  0  0  0  0  0  0  0  0  0  0  0
   -5.0522    0.2152    1.0945 H   0  0  0  0  0  0  0  0  0  0  0  0
   -3.7753   -0.7185    1.9872 H   0  0  0  0  0  0  0  0  0  0  0  0
   -3.6017    1.8180   -0.8931 H   0  0  0  0  0  0  0  0  0  0  0  0
   -2.9586    0.4331   -1.9243 H   0  0  0  0  0  0  0  0  0  0  0  0
   -4.6442    0.4406   -1.3532 H   0  0  0  0  0  0  0  0  0  0  0  0
   -0.9982   -0.0536   -1.5055 H   0  0  0  0  0  0  0  0  0  0  0  0
   -0.9747    1.4712   -0.6083 H   0  0  0  0  0  0  0  0  0  0  0  0
    0.3438   -1.8340   -0.5676 H   0  0  0  0  0  0  0  0  0  0  0  0
    1.4013   -1.5098    0.8612 H   0  0  0  0  0  0  0  0  0  0  0  0
    2.1024   -0.5667   -1.9514 H   0  0  0  0  0  0  0  0  0  0  0  0
    2.7078   -2.1155   -1.1757 H   0  0  0  0  0  0  0  0  0  0  0  0
    4.9847   -1.4708   -0.7682 H   0  0  0  0  0  0  0  0  0  0  0  0
    3.4870    1.7426    0.1604 H   0  0  0  0  0  0  0  0  0  0  0  0
    2.9426    0.7447    1.5313 H   0  0  0  0  0  0  0  0  0  0  0  0
    1.4167    1.8686   -0.8899 H   0  0  0  0  0  0  0  0  0  0  0  0
    1.0222    1.9623    0.8717 H   0  0  0  0  0  0  0  0  0  0  0  0
  1  2  1  0
  2  3  1  0
  2  4  1  0
  4  5  2  0
  4  6  1  0
  6  7  1  0
  7  8  1  0
  8  9  1  0
  9 10  1  0
 10 11  1  0
 11 12  2  0
 10 13  1  0
 13 14  1  0
 14  7  1  0
  1 15  1  0
  1 16  1  0
  1 17  1  0
  3 18  1  0
  3 19  1  0
  3 20  1  0
  6 21  1  0
  6 22  1  0
  8 23  1  0
  8 24  1  0
  9 25  1  0
  9 26  1  0
 11 27  1  0
 13 28  1  0
 13 29  1  0
 14 30  1  0
 14 31  1  0
M  END
$$$$

     RDKit          3D

 31 31  0  0  0  0  0  0  0  0999 V2000
   -4.2421   -0.3231    0.3744 C   0  0  0  0  0  0  0  0  0  0  0  0
   -2.8248   -0.0553    0.2007 N   0  0  0  0  0  0  0  0  0  0  0  0
   -2.3846    0.1212   -1.1508 C   0  0  0  0  0  0  0  0  0  0  0  0
   -1.9809    0.0491    1.2991 C   0  0  0  0  0  0  0  0  0  0  0  0
   -2.6252   -0.0884    2.4382 O   0  0  0  0  0  0  0  0  0  0  0  0
   -0.5483    0.2820    1.4069 C   0  0  0  0  0  0  0  0  0  0  0  0
    0.2524    0.3711    0.2402 N   0  0  0  0  0  0  0  0  0  0  0  0
    0.5154   -0.8095   -0.4467 C   0  0  0  0  0  0  0  0  0  0  0  0
    1.9406   -1.2949   -0.4241 C   0  0  0  0  0  0  0  0  0  0  0  0
    2.9134   -0.2605   -0.2627 N   0  0  0  0  0  0  0  0  0  0  0  0
    4.2932   -0.5783   -0.2814 C   0  0  0  0  0  0  0  0  0  0  0  0
    5.2173    0.2539   -0.1520 O   0  0  0  0  0  0  0  0  0  0  0  0
    2.5816    1.1313   -0.0760 C   0  0  0  0  0  0  0  0  0  0  0  0
    1.1738    1.4352    0.2222 C   0  0  0  0  0  0  0  0  0  0  0  0
   -4.8417   -0.0001   -0.5041 H   0  0  0  0  0  0  0  0  0  0  0  0
   -4.4461   -1.3851    0.5084 H   0  0  0  0  0  0  0  0  0  0  0  0
   -4.6684    0.2360    1.2372 H   0  0  0  0  0  0  0  0  0  0  0  0
   -3.2592    0.4762   -1.8033 H   0  0  0  0  0  0  0  0  0  0  0  0
   -1.5853    0.8938   -1.2469 H   0  0  0  0  0  0  0  0  0  0  0  0
   -2.0959   -0.8583   -1.5730 H   0  0  0  0  0  0  0  0  0  0  0  0
   -0.0596   -0.4324    2.1404 H   0  0  0  0  0  0  0  0  0  0  0  0
   -0.4473    1.2910    1.9396 H   0  0  0  0  0  0  0  0  0  0  0  0
    0.2913   -0.6729   -1.5356 H   0  0  0  0  0  0  0  0  0  0  0  0
   -0.1577   -1.6152   -0.0885 H   0  0  0  0  0  0  0  0  0  0  0  0
    2.2078   -1.8468   -1.3648 H   0  0  0  0  0  0  0  0  0  0  0  0
    2.0750   -2.0291    0.3942 H   0  0  0  0  0  0  0  0  0  0  0  0
    4.5681   -1.6233   -0.4195 H   0  0  0  0  0  0  0  0  0  0  0  0
    3.2872    1.5309    0.7009 H   0  0  0  0  0  0  0  0  0  0  0  0
    2.9209    1.6453   -1.0151 H   0  0  0  0  0  0  0  0  0  0  0  0
    0.7830    2.2205   -0.4733 H   0  0  0  0  0  0  0  0  0  0  0  0
    1.1461    1.9360    1.2373 H   0  0  0  0  0  0  0  0  0  0  0  0
  1  2  1  0
  2  3  1  0
  2  4  1  0
  4  5  2  0
  4  6  1  0
  6  7  1  0
  7  8  1  0
  8  9  1  0
  9 10  1  0
 10 11  1  0
 11 12  2  0
 10 13  1  0
 13 14  1  0
 14  7  1  0
  1 15  1  0
  1 16  1  0
  1 17  1  0
  3 18  1  0
  3 19  1  0
  3 20  1  0
  6 21  1  0
  6 22  1  0
  8 23  1  0
  8 24  1  0
  9 25  1  0
  9 26  1  0
 11 27  1  0
 13 28  1  0
 13 29  1  0
 14 30  1  0
 14 31  1  0
M  END
$$$$

     RDKit          3D

 31 31  0  0  0  0  0  0  0  0999 V2000
   -3.6905    0.9728   -0.3321 C   0  0  0  0  0  0  0  0  0  0  0  0
   -2.9349    0.2769    0.7153 N   0  0  0  0  0  0  0  0  0  0  0  0
   -3.6470   -0.1691    1.8958 C   0  0  0  0  0  0  0  0  0  0  0  0
   -1.5454    0.0527    0.5640 C   0  0  0  0  0  0  0  0  0  0  0  0
   -0.9295   -0.5461    1.4731 O   0  0  0  0  0  0  0  0  0  0  0  0
   -0.8789    0.5316   -0.6574 C   0  0  0  0  0  0  0  0  0  0  0  0
    0.5114    0.2645   -0.7364 N   0  0  0  0  0  0  0  0  0  0  0  0
    1.3438    0.9615    0.1701 C   0  0  0  0  0  0  0  0  0  0  0  0
    2.7965    0.7416   -0.2303 C   0  0  0  0  0  0  0  0  0  0  0  0
    3.1063   -0.6752   -0.2824 N   0  0  0  0  0  0  0  0  0  0  0  0
    4.4329   -1.1437   -0.3366 C   0  0  0  0  0  0  0  0  0  0  0  0
    4.6241   -2.3949   -0.3853 O   0  0  0  0  0  0  0  0  0  0  0  0
    2.0056   -1.6004   -0.2740 C   0  0  0  0  0  0  0  0  0  0  0  0
    0.8912   -1.0408   -1.1162 C   0  0  0  0  0  0  0  0  0  0  0  0
   -3.0618    1.7471   -0.8148 H   0  0  0  0  0  0  0  0  0  0  0  0
   -3.8564    0.1975   -1.1363 H   0  0  0  0  0  0  0  0  0  0  0  0
   -4.6335    1.3635    0.0779 H   0  0  0  0  0  0  0  0  0  0  0  0
   -4.7092    0.1052    1.8214 H   0  0  0  0  0  0  0  0  0  0  0  0
   -3.5373   -1.2912    1.8894 H   0  0  0  0  0  0  0  0  0  0  0  0
   -3.2581    0.2255    2.8354 H   0  0  0  0  0  0  0  0  0  0  0  0
   -1.3684    0.0891   -1.5584 H   0  0  0  0  0  0  0  0  0  0  0  0
   -1.0237    1.6462   -0.6865 H   0  0  0  0  0  0  0  0  0  0  0  0
    1.2412    0.6582    1.2187 H   0  0  0  0  0  0  0  0  0  0  0  0
    1.1521    2.0489    0.0780 H   0  0  0  0  0  0  0  0  0  0  0  0
    2.9999    1.1740   -1.2431 H   0  0  0  0  0  0  0  0  0  0  0  0
    3.4457    1.2769    0.4913 H   0  0  0  0  0  0  0  0  0  0  0  0
    5.3187   -0.5474   -0.3407 H   0  0  0  0  0  0  0  0  0  0  0  0
    1.6540   -1.6606    0.7911 H   0  0  0  0  0  0  0  0  0  0  0  0
    2.2910   -2.6230   -0.6147 H   0  0  0  0  0  0  0  0  0  0  0  0
    0.0007   -1.7160   -1.1001 H   0  0  0  0  0  0  0  0  0  0  0  0
    1.2592   -1.0124   -2.1761 H   0  0  0  0  0  0  0  0  0  0  0  0
  1  2  1  0
  2  3  1  0
  2  4  1  0
  4  5  2  0
  4  6  1  0
  6  7  1  0
  7  8  1  0
  8  9  1  0
  9 10  1  0
 10 11  1  0
 11 12  2  0
 10 13  1  0
 13 14  1  0
 14  7  1  0
  1 15  1  0
  1 16  1  0
  1 17  1  0
  3 18  1  0
  3 19  1  0
  3 20  1  0
  6 21  1  0
  6 22  1  0
  8 23  1  0
  8 24  1  0
  9 25  1  0
  9 26  1  0
 11 27  1  0
 13 28  1  0
 13 29  1  0
 14 30  1  0
 14 31  1  0
M  END
$$$$

     RDKit          3D

 31 31  0  0  0  0  0  0  0  0999 V2000
    3.2958    1.2293   -0.3253 C   0  0  0  0  0  0  0  0  0  0  0  0
    3.0438   -0.1874   -0.2121 N   0  0  0  0  0  0  0  0  0  0  0  0
    4.0817   -1.1164   -0.5779 C   0  0  0  0  0  0  0  0  0  0  0  0
    1.8068   -0.6872    0.2451 C   0  0  0  0  0  0  0  0  0  0  0  0
    1.6619   -1.9377    0.3149 O   0  0  0  0  0  0  0  0  0  0  0  0
    0.7522    0.2914    0.6153 C   0  0  0  0  0  0  0  0  0  0  0  0
   -0.4940   -0.3215    1.0328 N   0  0  0  0  0  0  0  0  0  0  0  0
   -1.3557    0.6698    1.5647 C   0  0  0  0  0  0  0  0  0  0  0  0
   -2.7981    0.6530    1.2416 C   0  0  0  0  0  0  0  0  0  0  0  0
   -3.0830    0.0756   -0.0430 N   0  0  0  0  0  0  0  0  0  0  0  0
   -4.3827   -0.2229   -0.4375 C   0  0  0  0  0  0  0  0  0  0  0  0
   -4.6524   -0.7222   -1.5403 O   0  0  0  0  0  0  0  0  0  0  0  0
   -1.9255   -0.1701   -0.8759 C   0  0  0  0  0  0  0  0  0  0  0  0
   -1.0582   -1.0961   -0.0246 C   0  0  0  0  0  0  0  0  0  0  0  0
    4.4040    1.4571   -0.3423 H   0  0  0  0  0  0  0  0  0  0  0  0
    2.8616    1.5726   -1.3094 H   0  0  0  0  0  0  0  0  0  0  0  0
    2.8292    1.8442    0.4479 H   0  0  0  0  0  0  0  0  0  0  0  0
    3.8362   -1.4703   -1.6228 H   0  0  0  0  0  0  0  0  0  0  0  0
    3.9985   -1.9727    0.1598 H   0  0  0  0  0  0  0  0  0  0  0  0
    5.0934   -0.6644   -0.5795 H   0  0  0  0  0  0  0  0  0  0  0  0
    0.6352    0.9936   -0.2170 H   0  0  0  0  0  0  0  0  0  0  0  0
    1.1423    0.8764    1.4718 H   0  0  0  0  0  0  0  0  0  0  0  0
   -1.2651    0.5957    2.6889 H   0  0  0  0  0  0  0  0  0  0  0  0
   -0.9524    1.6990    1.3061 H   0  0  0  0  0  0  0  0  0  0  0  0
   -3.4406    0.1591    2.0036 H   0  0  0  0  0  0  0  0  0  0  0  0
   -3.1694    1.7084    1.2050 H   0  0  0  0  0  0  0  0  0  0  0  0
   -5.2096   -0.0105    0.2590 H   0  0  0  0  0  0  0  0  0  0  0  0
   -2.1767   -0.5612   -1.8546 H   0  0  0  0  0  0  0  0  0  0  0  0
   -1.3738    0.8219   -0.9245 H   0  0  0  0  0  0  0  0  0  0  0  0
   -0.3494   -1.6560   -0.6378 H   0  0  0  0  0  0  0  0  0  0  0  0
   -1.7561   -1.8504    0.4249 H   0  0  0  0  0  0  0  0  0  0  0  0
  1  2  1  0
  2  3  1  0
  2  4  1  0
  4  5  2  0
  4  6  1  0
  6  7  1  0
  7  8  1  0
  8  9  1  0
  9 10  1  0
 10 11  1  0
 11 12  2  0
 10 13  1  0
 13 14  1  0
 14  7  1  0
  1 15  1  0
  1 16  1  0
  1 17  1  0
  3 18  1  0
  3 19  1  0
  3 20  1  0
  6 21  1  0
  6 22  1  0
  8 23  1  0
  8 24  1  0
  9 25  1  0
  9 26  1  0
 11 27  1  0
 13 28  1  0
 13 29  1  0
 14 30  1  0
 14 31  1  0
M  END
$$$$

     RDKit          3D

 31 31  0  0  0  0  0  0  0  0999 V2000
   -4.1510    0.9753    0.6174 C   0  0  0  0  0  0  0  0  0  0  0  0
   -3.1043    0.0766    0.1087 N   0  0  0  0  0  0  0  0  0  0  0  0
   -3.4902   -1.0091   -0.7710 C   0  0  0  0  0  0  0  0  0  0  0  0
   -1.7461    0.2728    0.4747 C   0  0  0  0  0  0  0  0  0  0  0  0
   -1.4561    1.2363    1.2470 O   0  0  0  0  0  0  0  0  0  0  0  0
   -0.7381   -0.6453   -0.0550 C   0  0  0  0  0  0  0  0  0  0  0  0
    0.6087   -0.3401    0.3914 N   0  0  0  0  0  0  0  0  0  0  0  0
    1.4688   -1.3168   -0.2062 C   0  0  0  0  0  0  0  0  0  0  0  0
    2.9318   -1.0655    0.0293 C   0  0  0  0  0  0  0  0  0  0  0  0
    3.1920    0.3446    0.0958 N   0  0  0  0  0  0  0  0  0  0  0  0
    4.3351    0.8289    0.7540 C   0  0  0  0  0  0  0  0  0  0  0  0
    5.1600    0.0515    1.3013 O   0  0  0  0  0  0  0  0  0  0  0  0
    2.2604    1.2442   -0.5237 C   0  0  0  0  0  0  0  0  0  0  0  0
    0.9050    1.0131    0.0588 C   0  0  0  0  0  0  0  0  0  0  0  0
   -4.6488    0.4597    1.4653 H   0  0  0  0  0  0  0  0  0  0  0  0
   -3.7375    1.9584    0.9002 H   0  0  0  0  0  0  0  0  0  0  0  0
   -4.9026    1.1295   -0.1585 H   0  0  0  0  0  0  0  0  0  0  0  0
   -4.5668   -1.2338   -0.6463 H   0  0  0  0  0  0  0  0  0  0  0  0
   -2.9543   -1.9195   -0.3782 H   0  0  0  0  0  0  0  0  0  0  0  0
   -3.1843   -0.7942   -1.7949 H   0  0  0  0  0  0  0  0  0  0  0  0
   -1.0106   -1.6936    0.2016 H   0  0  0  0  0  0  0  0  0  0  0  0
   -0.7464   -0.5473   -1.1700 H   0  0  0  0  0  0  0  0  0  0  0  0
    1.2076   -2.3060    0.2395 H   0  0  0  0  0  0  0  0  0  0  0  0
    1.2159   -1.3870   -1.2866 H   0  0  0  0  0  0  0  0  0  0  0  0
    3.3496   -1.6373    0.8629 H   0  0  0  0  0  0  0  0  0  0  0  0
    3.4636   -1.4409   -0.8946 H   0  0  0  0  0  0  0  0  0  0  0  0
    4.5455    1.8843    0.8132 H   0  0  0  0  0  0  0  0  0  0  0  0
    2.2557    1.0293   -1.6178 H   0  0  0  0  0  0  0  0  0  0  0  0
    2.5598    2.2970   -0.3421 H   0  0  0  0  0  0  0  0  0  0  0  0
    0.8176    1.6944    0.9560 H   0  0  0  0  0  0  0  0  0  0  0  0
    0.1601    1.4440   -0.6721 H   0  0  0  0  0  0  0  0  0  0  0  0
  1  2  1  0
  2  3  1  0
  2  4  1  0
  4  5  2  0
  4  6  1  0
  6  7  1  0
  7  8  1  0
  8  9  1  0
  9 10  1  0
 10 11  1  0
 11 12  2  0
 10 13  1  0
 13 14  1  0
 14  7  1  0
  1 15  1  0
  1 16  1  0
  1 17  1  0
  3 18  1  0
  3 19  1  0
  3 20  1  0
  6 21  1  0
  6 22  1  0
  8 23  1  0
  8 24  1  0
  9 25  1  0
  9 26  1  0
 11 27  1  0
 13 28  1  0
 13 29  1  0
 14 30  1  0
 14 31  1  0
M  END
$$$$

     RDKit          3D

 31 31  0  0  0  0  0  0  0  0999 V2000
    3.4538   -0.7786   -0.9507 C   0  0  0  0  0  0  0  0  0  0  0  0
    3.1213    0.3713   -0.1585 N   0  0  0  0  0  0  0  0  0  0  0  0
    4.1113    1.3951    0.0651 C   0  0  0  0  0  0  0  0  0  0  0  0
    1.8286    0.5084    0.4113 C   0  0  0  0  0  0  0  0  0  0  0  0
    1.6129    1.5528    1.0970 O   0  0  0  0  0  0  0  0  0  0  0  0
    0.8468   -0.5611    0.1647 C   0  0  0  0  0  0  0  0  0  0  0  0
   -0.4189   -0.2436    0.7961 N   0  0  0  0  0  0  0  0  0  0  0  0
   -1.3195   -1.3842    0.7082 C   0  0  0  0  0  0  0  0  0  0  0  0
   -2.4812   -1.2231   -0.1977 C   0  0  0  0  0  0  0  0  0  0  0  0
   -3.2530   -0.0224    0.0985 N   0  0  0  0  0  0  0  0  0  0  0  0
   -4.6523   -0.0051   -0.0528 C   0  0  0  0  0  0  0  0  0  0  0  0
   -5.3163    1.0182    0.1982 O   0  0  0  0  0  0  0  0  0  0  0  0
   -2.4683    1.1025    0.5460 C   0  0  0  0  0  0  0  0  0  0  0  0
   -1.0035    0.9323    0.1886 C   0  0  0  0  0  0  0  0  0  0  0  0
    3.3717   -0.4894   -2.0134 H   0  0  0  0  0  0  0  0  0  0  0  0
    2.7402   -1.6234   -0.7933 H   0  0  0  0  0  0  0  0  0  0  0  0
    4.4590   -1.1987   -0.7330 H   0  0  0  0  0  0  0  0  0  0  0  0
    4.4420    1.7561   -0.9438 H   0  0  0  0  0  0  0  0  0  0  0  0
    3.7135    2.2726    0.5965 H   0  0  0  0  0  0  0  0  0  0  0  0
    4.9606    1.0196    0.6639 H   0  0  0  0  0  0  0  0  0  0  0  0
    0.7448   -0.7965   -0.9101 H   0  0  0  0  0  0  0  0  0  0  0  0
    1.2677   -1.5078    0.6134 H   0  0  0  0  0  0  0  0  0  0  0  0
   -0.7236   -2.2664    0.3577 H   0  0  0  0  0  0  0  0  0  0  0  0
   -1.6221   -1.6295    1.7434 H   0  0  0  0  0  0  0  0  0  0  0  0
   -3.1888   -2.0749    0.0364 H   0  0  0  0  0  0  0  0  0  0  0  0
   -2.2364   -1.3390   -1.2631 H   0  0  0  0  0  0  0  0  0  0  0  0
   -5.1574   -0.8889   -0.3894 H   0  0  0  0  0  0  0  0  0  0  0  0
   -2.8327    1.9917   -0.0203 H   0  0  0  0  0  0  0  0  0  0  0  0
   -2.5979    1.3131    1.6278 H   0  0  0  0  0  0  0  0  0  0  0  0
   -0.8911    0.9738   -0.9088 H   0  0  0  0  0  0  0  0  0  0  0  0
   -0.5113    1.8252    0.6147 H   0  0  0  0  0  0  0  0  0  0  0  0
  1  2  1  0
  2  3  1  0
  2  4  1  0
  4  5  2  0
  4  6  1  0
  6  7  1  0
  7  8  1  0
  8  9  1  0
  9 10  1  0
 10 11  1  0
 11 12  2  0
 10 13  1  0
 13 14  1  0
 14  7  1  0
  1 15  1  0
  1 16  1  0
  1 17  1  0
  3 18  1  0
  3 19  1  0
  3 20  1  0
  6 21  1  0
  6 22  1  0
  8 23  1  0
  8 24  1  0
  9 25  1  0
  9 26  1  0
 11 27  1  0
 13 28  1  0
 13 29  1  0
 14 30  1  0
 14 31  1  0
M  END
$$$$
