
     RDKit          3D

 20 21  0  0  0  0  0  0  0  0999 V2000
    3.5954   -0.2238    0.6767 N   0  0  0  0  0  0  0  0  0  0  0  0
    2.5504   -1.2011    0.4466 C   0  0  0  0  0  0  0  0  0  0  0  0
    1.2393   -0.5265    0.3405 C   0  0  0  0  0  0  0  0  0  0  0  0
    1.0830    0.8058    0.4481 N   0  0  0  0  0  0  0  0  0  0  0  0
   -0.1399    1.3727    0.3432 C   0  0  0  0  0  0  0  0  0  0  0  0
   -0.3360    2.7459    0.4495 O   0  0  0  0  0  0  0  0  0  0  0  0
   -1.2499    0.5852    0.1228 C   0  0  0  0  0  0  0  0  0  0  0  0
   -1.0694   -0.7902    0.0142 C   0  0  0  0  0  0  0  0  0  0  0  0
    0.1574   -1.3308    0.1222 N   0  0  0  0  0  0  0  0  0  0  0  0
   -2.3696   -1.4004   -0.2139 C   0  0  0  0  0  0  0  0  0  0  0  0
   -2.6829   -2.6092   -0.3709 O   0  0  0  0  0  0  0  0  0  0  0  0
   -3.3182   -0.3465   -0.2364 N   0  0  0  0  0  0  0  0  0  0  0  0
   -2.6618    0.9106   -0.0300 C   0  0  0  0  0  0  0  0  0  0  0  0
   -3.2323    2.0336    0.0035 O   0  0  0  0  0  0  0  0  0  0  0  0
    3.9103    0.1283   -0.2761 H   0  0  0  0  0  0  0  0  0  0  0  0
    3.1963    0.5585    1.2406 H   0  0  0  0  0  0  0  0  0  0  0  0
    2.8106   -1.8035   -0.4395 H   0  0  0  0  0  0  0  0  0  0  0  0
    2.4867   -1.8719    1.3436 H   0  0  0  0  0  0  0  0  0  0  0  0
    0.3731    3.4325    0.2948 H   0  0  0  0  0  0  0  0  0  0  0  0
   -4.3427   -0.4693   -0.3817 H   0  0  0  0  0  0  0  0  0  0  0  0
  1  2  1  0
  2  3  1  0
  3  4  2  0
  4  5  1  0
  5  6  1  0
  5  7  2  0
  7  8  1  0
  8  9  2  0
  8 10  1  0
 10 11  2  0
 10 12  1  0
 12 13  1  0
 13 14  2  0
  9  3  1  0
 13  7  1  0
  1 15  1  0
  1 16  1  0
  2 17  1  0
  2 18  1  0
  6 19  1  0
 12 20  1  0
M  END
$$$$

     RDKit          3D

 20 21  0  0  0  0  0  0  0  0999 V2000
    3.4404   -0.4377    0.7130 N   0  0  0  0  0  0  0  0  0  0  0  0
    2.7609   -0.0266   -0.4999 C   0  0  0  0  0  0  0  0  0  0  0  0
    1.3117    0.1492   -0.3221 C   0  0  0  0  0  0  0  0  0  0  0  0
    0.8131    1.3500    0.0440 N   0  0  0  0  0  0  0  0  0  0  0  0
   -0.5072    1.5315    0.2117 C   0  0  0  0  0  0  0  0  0  0  0  0
   -1.0392    2.7494    0.5853 O   0  0  0  0  0  0  0  0  0  0  0  0
   -1.3396    0.4557   -0.0009 C   0  0  0  0  0  0  0  0  0  0  0  0
   -0.8169   -0.7548   -0.3717 C   0  0  0  0  0  0  0  0  0  0  0  0
    0.5059   -0.9026   -0.5306 N   0  0  0  0  0  0  0  0  0  0  0  0
   -1.9017   -1.7105   -0.5294 C   0  0  0  0  0  0  0  0  0  0  0  0
   -1.8394   -2.9380   -0.8632 O   0  0  0  0  0  0  0  0  0  0  0  0
   -3.1077   -1.0196   -0.2358 N   0  0  0  0  0  0  0  0  0  0  0  0
   -2.7849    0.3402    0.0987 C   0  0  0  0  0  0  0  0  0  0  0  0
   -3.5975    1.2358    0.4115 O   0  0  0  0  0  0  0  0  0  0  0  0
    4.0619   -1.2613    0.5593 H   0  0  0  0  0  0  0  0  0  0  0  0
    2.8064   -0.5409    1.5265 H   0  0  0  0  0  0  0  0  0  0  0  0
    2.9293   -0.8203   -1.2625 H   0  0  0  0  0  0  0  0  0  0  0  0
    3.2480    0.9454   -0.8017 H   0  0  0  0  0  0  0  0  0  0  0  0
   -0.8660    3.0778    1.5239 H   0  0  0  0  0  0  0  0  0  0  0  0
   -4.0777   -1.4228   -0.2561 H   0  0  0  0  0  0  0  0  0  0  0  0
  1  2  1  0
  2  3  1  0
  3  4  2  0
  4  5  1  0
  5  6  1  0
  5  7  2  0
  7  8  1  0
  8  9  2  0
  8 10  1  0
 10 11  2  0
 10 12  1  0
 12 13  1  0
 13 14  2  0
  9  3  1  0
 13  7  1  0
  1 15  1  0
  1 16  1  0
  2 17  1  0
  2 18  1  0
  6 19  1  0
 12 20  1  0
M  END
$$$$

     RDKit          3D

 20 21  0  0  0  0  0  0  0  0999 V2000
    3.1456    1.2808   -0.3743 N   0  0  0  0  0  0  0  0  0  0  0  0
    2.8513   -0.1073   -0.1592 C   0  0  0  0  0  0  0  0  0  0  0  0
    1.3592   -0.2802   -0.0768 C   0  0  0  0  0  0  0  0  0  0  0  0
    0.8064   -1.4914    0.1222 N   0  0  0  0  0  0  0  0  0  0  0  0
   -0.5126   -1.6569    0.1969 C   0  0  0  0  0  0  0  0  0  0  0  0
   -1.1168   -2.8911    0.4012 O   0  0  0  0  0  0  0  0  0  0  0  0
   -1.3319   -0.5557    0.0665 C   0  0  0  0  0  0  0  0  0  0  0  0
   -0.7931    0.7104   -0.1400 C   0  0  0  0  0  0  0  0  0  0  0  0
    0.5474    0.7853   -0.2022 N   0  0  0  0  0  0  0  0  0  0  0  0
   -1.8759    1.6791   -0.2408 C   0  0  0  0  0  0  0  0  0  0  0  0
   -1.7807    2.9157   -0.4260 O   0  0  0  0  0  0  0  0  0  0  0  0
   -3.1064    0.9899   -0.0926 N   0  0  0  0  0  0  0  0  0  0  0  0
   -2.7874   -0.3992    0.0992 C   0  0  0  0  0  0  0  0  0  0  0  0
   -3.6583   -1.3056    0.2656 O   0  0  0  0  0  0  0  0  0  0  0  0
    4.0242    1.4498   -0.9128 H   0  0  0  0  0  0  0  0  0  0  0  0
    3.0974    1.8455    0.5019 H   0  0  0  0  0  0  0  0  0  0  0  0
    3.2765   -0.5347    0.7466 H   0  0  0  0  0  0  0  0  0  0  0  0
    3.2428   -0.6977   -1.0278 H   0  0  0  0  0  0  0  0  0  0  0  0
   -1.3195   -3.1420    1.3690 H   0  0  0  0  0  0  0  0  0  0  0  0
   -4.0682    1.4051   -0.1168 H   0  0  0  0  0  0  0  0  0  0  0  0
  1  2  1  0
  2  3  1  0
  3  4  2  0
  4  5  1  0
  5  6  1  0
  5  7  2  0
  7  8  1  0
  8  9  2  0
  8 10  1  0
 10 11  2  0
 10 12  1  0
 12 13  1  0
 13 14  2  0
  9  3  1  0
 13  7  1  0
  1 15  1  0
  1 16  1  0
  2 17  1  0
  2 18  1  0
  6 19  1  0
 12 20  1  0
M  END
$$$$

     RDKit          3D

 20 21  0  0  0  0  0  0  0  0999 V2000
   -3.3756    0.9312    0.1179 N   0  0  0  0  0  0  0  0  0  0  0  0
   -2.8531   -0.3954    0.1440 C   0  0  0  0  0  0  0  0  0  0  0  0
   -1.3474   -0.3878    0.1491 C   0  0  0  0  0  0  0  0  0  0  0  0
   -0.6758   -1.5460    0.1725 N   0  0  0  0  0  0  0  0  0  0  0  0
    0.6674   -1.6104    0.1784 C   0  0  0  0  0  0  0  0  0  0  0  0
    1.3551   -2.8306    0.2030 O   0  0  0  0  0  0  0  0  0  0  0  0
    1.3482   -0.3992    0.1588 C   0  0  0  0  0  0  0  0  0  0  0  0
    0.6272    0.7761    0.1349 C   0  0  0  0  0  0  0  0  0  0  0  0
   -0.7318    0.8077    0.1296 N   0  0  0  0  0  0  0  0  0  0  0  0
    1.6389    1.8471    0.1191 C   0  0  0  0  0  0  0  0  0  0  0  0
    1.3626    3.0719    0.0958 O   0  0  0  0  0  0  0  0  0  0  0  0
    2.9500    1.3001    0.1336 N   0  0  0  0  0  0  0  0  0  0  0  0
    2.7795   -0.1104    0.1586 C   0  0  0  0  0  0  0  0  0  0  0  0
    3.6806   -0.9690    0.1774 O   0  0  0  0  0  0  0  0  0  0  0  0
   -2.8786    1.5218    0.8200 H   0  0  0  0  0  0  0  0  0  0  0  0
   -3.4726    1.3548   -0.8097 H   0  0  0  0  0  0  0  0  0  0  0  0
   -3.2523   -0.9192    1.0437 H   0  0  0  0  0  0  0  0  0  0  0  0
   -3.1570   -0.9890   -0.7440 H   0  0  0  0  0  0  0  0  0  0  0  0
    1.4771   -3.2866    1.1147 H   0  0  0  0  0  0  0  0  0  0  0  0
    3.8574    1.8329    0.1271 H   0  0  0  0  0  0  0  0  0  0  0  0
  1  2  1  0
  2  3  1  0
  3  4  2  0
  4  5  1  0
  5  6  1  0
  5  7  2  0
  7  8  1  0
  8  9  2  0
  8 10  1  0
 10 11  2  0
 10 12  1  0
 12 13  1  0
 13 14  2  0
  9  3  1  0
 13  7  1  0
  1 15  1  0
  1 16  1  0
  2 17  1  0
  2 18  1  0
  6 19  1  0
 12 20  1  0
M  END
$$$$

     RDKit          3D

 20 21  0  0  0  0  0  0  0  0999 V2000
   -3.2179   -1.0692    0.6430 N   0  0  0  0  0  0  0  0  0  0  0  0
   -2.7256   -0.6762   -0.6541 C   0  0  0  0  0  0  0  0  0  0  0  0
   -1.3140   -0.1893   -0.5505 C   0  0  0  0  0  0  0  0  0  0  0  0
   -0.9997    1.0839   -0.3794 N   0  0  0  0  0  0  0  0  0  0  0  0
    0.2547    1.5400   -0.2825 C   0  0  0  0  0  0  0  0  0  0  0  0
    0.5712    2.8759   -0.1033 O   0  0  0  0  0  0  0  0  0  0  0  0
    1.2762    0.5908   -0.3709 C   0  0  0  0  0  0  0  0  0  0  0  0
    0.9574   -0.7278   -0.5480 C   0  0  0  0  0  0  0  0  0  0  0  0
   -0.3424   -1.1054   -0.6364 N   0  0  0  0  0  0  0  0  0  0  0  0
    2.2187   -1.4633   -0.6019 C   0  0  0  0  0  0  0  0  0  0  0  0
    2.2604   -2.7277   -0.7609 O   0  0  0  0  0  0  0  0  0  0  0  0
    3.2908   -0.5526   -0.4530 N   0  0  0  0  0  0  0  0  0  0  0  0
    2.7192    0.7362   -0.3075 C   0  0  0  0  0  0  0  0  0  0  0  0
    3.3745    1.8313   -0.1483 O   0  0  0  0  0  0  0  0  0  0  0  0
   -2.5542   -0.7880    1.3926 H   0  0  0  0  0  0  0  0  0  0  0  0
   -4.1478   -0.6656    0.8672 H   0  0  0  0  0  0  0  0  0  0  0  0
   -3.3659    0.0993   -1.1278 H   0  0  0  0  0  0  0  0  0  0  0  0
   -2.7109   -1.5623   -1.3014 H   0  0  0  0  0  0  0  0  0  0  0  0
    0.1504    3.5568   -0.7527 H   0  0  0  0  0  0  0  0  0  0  0  0
    4.3049   -0.7869   -0.4511 H   0  0  0  0  0  0  0  0  0  0  0  0
  1  2  1  0
  2  3  1  0
  3  4  2  0
  4  5  1  0
  5  6  1  0
  5  7  2  0
  7  8  1  0
  8  9  2  0
  8 10  1  0
 10 11  2  0
 10 12  1  0
 12 13  1  0
 13 14  2  0
  9  3  1  0
 13  7  1  0
  1 15  1  0
  1 16  1  0
  2 17  1  0
  2 18  1  0
  6 19  1  0
 12 20  1  0
M  END
$$$$

     RDKit          3D

 20 21  0  0  0  0  0  0  0  0999 V2000
    3.6060    0.6215   -0.1688 N   0  0  0  0  0  0  0  0  0  0  0  0
    2.8022   -0.5389   -0.3935 C   0  0  0  0  0  0  0  0  0  0  0  0
    1.3557   -0.2499   -0.1496 C   0  0  0  0  0  0  0  0  0  0  0  0
    0.9305    0.9667    0.2310 N   0  0  0  0  0  0  0  0  0  0  0  0
   -0.3787    1.2301    0.4523 C   0  0  0  0  0  0  0  0  0  0  0  0
   -0.8029    2.5037    0.8483 O   0  0  0  0  0  0  0  0  0  0  0  0
   -1.3339    0.2477    0.2932 C   0  0  0  0  0  0  0  0  0  0  0  0
   -0.8954   -0.9994   -0.0973 C   0  0  0  0  0  0  0  0  0  0  0  0
    0.4309   -1.2065   -0.3051 N   0  0  0  0  0  0  0  0  0  0  0  0
   -2.0961   -1.8226   -0.1849 C   0  0  0  0  0  0  0  0  0  0  0  0
   -2.1158   -3.0368   -0.5140 O   0  0  0  0  0  0  0  0  0  0  0  0
   -3.2299   -1.0390    0.1584 N   0  0  0  0  0  0  0  0  0  0  0  0
   -2.7806    0.2801    0.4671 C   0  0  0  0  0  0  0  0  0  0  0  0
   -3.5245    1.2336    0.8122 O   0  0  0  0  0  0  0  0  0  0  0  0
    3.2130    1.3059    0.4920 H   0  0  0  0  0  0  0  0  0  0  0  0
    4.0596    1.0114   -1.0040 H   0  0  0  0  0  0  0  0  0  0  0  0
    2.9610   -0.8569   -1.4555 H   0  0  0  0  0  0  0  0  0  0  0  0
    3.1724   -1.3667    0.2479 H   0  0  0  0  0  0  0  0  0  0  0  0
   -1.1576    3.0889    0.0908 H   0  0  0  0  0  0  0  0  0  0  0  0
   -4.2158   -1.3729    0.1797 H   0  0  0  0  0  0  0  0  0  0  0  0
  1  2  1  0
  2  3  1  0
  3  4  2  0
  4  5  1  0
  5  6  1  0
  5  7  2  0
  7  8  1  0
  8  9  2  0
  8 10  1  0
 10 11  2  0
 10 12  1  0
 12 13  1  0
 13 14  2  0
  9  3  1  0
 13  7  1  0
  1 15  1  0
  1 16  1  0
  2 17  1  0
  2 18  1  0
  6 19  1  0
 12 20  1  0
M  END
$$$$

     RDKit          3D

 20 21  0  0  0  0  0  0  0  0999 V2000
   -3.6781   -0.2593   -0.2149 N   0  0  0  0  0  0  0  0  0  0  0  0
   -2.7538    0.8149   -0.3620 C   0  0  0  0  0  0  0  0  0  0  0  0
   -1.3340    0.3768   -0.1693 C   0  0  0  0  0  0  0  0  0  0  0  0
   -1.0516   -0.9050    0.1085 N   0  0  0  0  0  0  0  0  0  0  0  0
    0.2153   -1.3407    0.2894 C   0  0  0  0  0  0  0  0  0  0  0  0
    0.5227   -2.6622    0.5771 O   0  0  0  0  0  0  0  0  0  0  0  0
    1.2652   -0.4531    0.1890 C   0  0  0  0  0  0  0  0  0  0  0  0
    0.9935    0.8643   -0.0951 C   0  0  0  0  0  0  0  0  0  0  0  0
   -0.3096    1.2389   -0.2665 N   0  0  0  0  0  0  0  0  0  0  0  0
    2.2565    1.5885   -0.1470 C   0  0  0  0  0  0  0  0  0  0  0  0
    2.3209    2.8177   -0.3887 O   0  0  0  0  0  0  0  0  0  0  0  0
    3.3260    0.6933    0.1114 N   0  0  0  0  0  0  0  0  0  0  0  0
    2.7231   -0.5774    0.3216 C   0  0  0  0  0  0  0  0  0  0  0  0
    3.3170   -1.6468    0.5799 O   0  0  0  0  0  0  0  0  0  0  0  0
   -3.2317   -1.1564    0.0129 H   0  0  0  0  0  0  0  0  0  0  0  0
   -4.3018   -0.2788   -1.0505 H   0  0  0  0  0  0  0  0  0  0  0  0
   -2.8157    1.3247   -1.3552 H   0  0  0  0  0  0  0  0  0  0  0  0
   -2.9807    1.6049    0.3969 H   0  0  0  0  0  0  0  0  0  0  0  0
    1.1562   -2.9431    1.3158 H   0  0  0  0  0  0  0  0  0  0  0  0
    4.3607    0.8989    0.1466 H   0  0  0  0  0  0  0  0  0  0  0  0
  1  2  1  0
  2  3  1  0
  3  4  2  0
  4  5  1  0
  5  6  1  0
  5  7  2  0
  7  8  1  0
  8  9  2  0
  8 10  1  0
 10 11  2  0
 10 12  1  0
 12 13  1  0
 13 14  2  0
  9  3  1  0
 13  7  1  0
  1 15  1  0
  1 16  1  0
  2 17  1  0
  2 18  1  0
  6 19  1  0
 12 20  1  0
M  END
$$$$

     RDKit          3D

 20 21  0  0  0  0  0  0  0  0999 V2000
    3.6309    0.4765   -0.2144 N   0  0  0  0  0  0  0  0  0  0  0  0
    2.7826   -0.6454   -0.4882 C   0  0  0  0  0  0  0  0  0  0  0  0
    1.3386   -0.3054   -0.2309 C   0  0  0  0  0  0  0  0  0  0  0  0
    0.9678    0.9126    0.1986 N   0  0  0  0  0  0  0  0  0  0  0  0
   -0.3091    1.2507    0.4382 C   0  0  0  0  0  0  0  0  0  0  0  0
   -0.6629    2.5193    0.8822 O   0  0  0  0  0  0  0  0  0  0  0  0
   -1.3111    0.3226    0.2427 C   0  0  0  0  0  0  0  0  0  0  0  0
   -0.9400   -0.9313   -0.1984 C   0  0  0  0  0  0  0  0  0  0  0  0
    0.3617   -1.2090   -0.4211 N   0  0  0  0  0  0  0  0  0  0  0  0
   -2.1860   -1.6817   -0.3118 C   0  0  0  0  0  0  0  0  0  0  0  0
   -2.2347   -2.8725   -0.6895 O   0  0  0  0  0  0  0  0  0  0  0  0
   -3.2990   -0.8922    0.0561 N   0  0  0  0  0  0  0  0  0  0  0  0
   -2.7750    0.3819    0.4118 C   0  0  0  0  0  0  0  0  0  0  0  0
   -3.4463    1.3829    0.8024 O   0  0  0  0  0  0  0  0  0  0  0  0
    4.2366    0.3396    0.6374 H   0  0  0  0  0  0  0  0  0  0  0  0
    3.0852    1.3595   -0.0119 H   0  0  0  0  0  0  0  0  0  0  0  0
    3.1150   -1.4891    0.1441 H   0  0  0  0  0  0  0  0  0  0  0  0
    2.9021   -0.9880   -1.5423 H   0  0  0  0  0  0  0  0  0  0  0  0
   -0.9342    3.2206    0.2172 H   0  0  0  0  0  0  0  0  0  0  0  0
   -4.3223   -1.1516    0.0777 H   0  0  0  0  0  0  0  0  0  0  0  0
  1  2  1  0
  2  3  1  0
  3  4  2  0
  4  5  1  0
  5  6  1  0
  5  7  2  0
  7  8  1  0
  8  9  2  0
  8 10  1  0
 10 11  2  0
 10 12  1  0
 12 13  1  0
 13 14  2  0
  9  3  1  0
 13  7  1  0
  1 15  1  0
  1 16  1  0
  2 17  1  0
  2 18  1  0
  6 19  1  0
 12 20  1  0
M  END
$$$$
