
     RDKit          3D

 23 24  0  0  0  0  0  0  0  0999 V2000
    3.0538   -0.1743   -0.2405 C   0  0  0  0  0  0  0  0  0  0  0  0
    2.0256    0.6358   -0.8961 N   0  0  0  0  0  0  0  0  0  0  0  0
    1.2049    1.2825    0.1431 C   0  0  0  0  0  0  0  0  0  0  0  0
    0.4940   -0.0478    0.2579 C   0  0  0  0  0  0  0  0  0  0  0  0
   -0.9409    0.0124    0.6474 C   0  0  1  0  0  0  0  0  0  0  0  0
   -1.7816    0.7421   -0.2430 N   0  0  0  0  0  0  0  0  0  0  0  0
   -3.1210    0.2461   -0.0322 C   0  0  0  0  0  0  0  0  0  0  0  0
   -4.2077    0.8065   -0.3315 O   0  0  0  0  0  0  0  0  0  0  0  0
   -3.0021   -1.0355    0.5968 N   0  0  0  0  0  0  0  0  0  0  0  0
   -1.5946   -1.2926    0.7555 C   0  0  0  0  0  0  0  0  0  0  0  0
   -1.1495   -2.4474    0.9427 O   0  0  0  0  0  0  0  0  0  0  0  0
    0.8110   -0.1419   -1.1988 C   0  0  0  0  0  0  0  0  0  0  0  0
    3.1506    0.0877    0.8378 H   0  0  0  0  0  0  0  0  0  0  0  0
    4.0612    0.0107   -0.6891 H   0  0  0  0  0  0  0  0  0  0  0  0
    2.7731   -1.2509   -0.2664 H   0  0  0  0  0  0  0  0  0  0  0  0
    1.7764    1.5645    1.0470 H   0  0  0  0  0  0  0  0  0  0  0  0
    0.6016    2.0604   -0.3224 H   0  0  0  0  0  0  0  0  0  0  0  0
    1.0505   -0.7949    0.8324 H   0  0  0  0  0  0  0  0  0  0  0  0
   -0.9924    0.5273    1.6492 H   0  0  0  0  0  0  0  0  0  0  0  0
   -1.5896    1.4856   -0.9338 H   0  0  0  0  0  0  0  0  0  0  0  0
   -3.8084   -1.6383    0.8724 H   0  0  0  0  0  0  0  0  0  0  0  0
    1.0326   -1.1321   -1.6078 H   0  0  0  0  0  0  0  0  0  0  0  0
    0.1525    0.4939   -1.8204 H   0  0  0  0  0  0  0  0  0  0  0  0
  1  2  1  0
  2  3  1  0
  3  4  1  0
  4  5  1  0
  5  6  1  0
  6  7  1  0
  7  8  2  0
  7  9  1  0
  9 10  1  0
 10 11  2  0
  4 12  1  0
 12  2  1  0
 10  5  1  0
  1 13  1  0
  1 14  1  0
  1 15  1  0
  3 16  1  0
  3 17  1  0
  4 18  1  0
  5 19  1  1
  6 20  1  0
  9 21  1  0
 12 22  1  0
 12 23  1  0
M  END
$$$$

     RDKit          3D

 23 24  0  0  0  0  0  0  0  0999 V2000
    3.1890   -0.0421   -0.6122 C   0  0  0  0  0  0  0  0  0  0  0  0
    2.2288   -0.4206    0.3994 N   0  0  0  0  0  0  0  0  0  0  0  0
    1.1300   -1.2404   -0.0770 C   0  0  0  0  0  0  0  0  0  0  0  0
    0.3106   -0.0297   -0.3585 C   0  0  0  0  0  0  0  0  0  0  0  0
   -1.0627    0.0074    0.2406 C   0  0  1  0  0  0  0  0  0  0  0  0
   -1.7001    1.2526   -0.1414 N   0  0  0  0  0  0  0  0  0  0  0  0
   -3.1030    0.9663   -0.1139 C   0  0  0  0  0  0  0  0  0  0  0  0
   -4.0208    1.8418    0.0010 O   0  0  0  0  0  0  0  0  0  0  0  0
   -3.2844   -0.4477   -0.2359 N   0  0  0  0  0  0  0  0  0  0  0  0
   -1.9789   -0.9993   -0.3361 C   0  0  0  0  0  0  0  0  0  0  0  0
   -1.7549   -2.1301   -0.8341 O   0  0  0  0  0  0  0  0  0  0  0  0
    1.2796    0.6560    0.6047 C   0  0  0  0  0  0  0  0  0  0  0  0
    2.7454   -0.1103   -1.6182 H   0  0  0  0  0  0  0  0  0  0  0  0
    3.3981    1.0548   -0.4439 H   0  0  0  0  0  0  0  0  0  0  0  0
    4.1471   -0.5591   -0.5347 H   0  0  0  0  0  0  0  0  0  0  0  0
    1.4316   -1.8513   -0.9524 H   0  0  0  0  0  0  0  0  0  0  0  0
    0.6979   -1.8230    0.7733 H   0  0  0  0  0  0  0  0  0  0  0  0
    0.3360    0.3855   -1.3686 H   0  0  0  0  0  0  0  0  0  0  0  0
   -1.0257   -0.0264    1.3473 H   0  0  0  0  0  0  0  0  0  0  0  0
   -1.2867    2.1762   -0.3903 H   0  0  0  0  0  0  0  0  0  0  0  0
   -4.2147   -0.9446   -0.2456 H   0  0  0  0  0  0  0  0  0  0  0  0
    1.6041    1.6564    0.2965 H   0  0  0  0  0  0  0  0  0  0  0  0
    0.9335    0.6276    1.6681 H   0  0  0  0  0  0  0  0  0  0  0  0
  1  2  1  0
  2  3  1  0
  3  4  1  0
  4  5  1  0
  5  6  1  0
  6  7  1  0
  7  8  2  0
  7  9  1  0
  9 10  1  0
 10 11  2  0
  4 12  1  0
 12  2  1  0
 10  5  1  0
  1 13  1  0
  1 14  1  0
  1 15  1  0
  3 16  1  0
  3 17  1  0
  4 18  1  0
  5 19  1  1
  6 20  1  0
  9 21  1  0
 12 22  1  0
 12 23  1  0
M  END
$$$$

     RDKit          3D

 23 24  0  0  0  0  0  0  0  0999 V2000
    2.1880    0.4374    1.1056 C   0  0  0  0  0  0  0  0  0  0  0  0
    1.0175    0.0179    0.3753 N   0  0  0  0  0  0  0  0  0  0  0  0
    0.6070    0.9144   -0.6913 C   0  0  0  0  0  0  0  0  0  0  0  0
    0.0724   -0.3290   -1.3730 C   0  0  0  0  0  0  0  0  0  0  0  0
   -1.2146   -0.7741   -0.7291 C   0  0  1  0  0  0  0  0  0  0  0  0
   -1.0152   -1.0776    0.6656 N   0  0  0  0  0  0  0  0  0  0  0  0
   -1.5584   -0.0404    1.4826 C   0  0  0  0  0  0  0  0  0  0  0  0
   -1.4665    0.1117    2.7283 O   0  0  0  0  0  0  0  0  0  0  0  0
   -2.2581    0.8410    0.6154 N   0  0  0  0  0  0  0  0  0  0  0  0
   -2.1503    0.3592   -0.7127 C   0  0  0  0  0  0  0  0  0  0  0  0
   -2.7800    0.8616   -1.6838 O   0  0  0  0  0  0  0  0  0  0  0  0
    1.2707   -0.9516   -0.6770 C   0  0  0  0  0  0  0  0  0  0  0  0
    1.8977    1.2811    1.7552 H   0  0  0  0  0  0  0  0  0  0  0  0
    3.0374    0.7089    0.4239 H   0  0  0  0  0  0  0  0  0  0  0  0
    2.5174   -0.4370    1.7121 H   0  0  0  0  0  0  0  0  0  0  0  0
    1.4849    1.3281   -1.2508 H   0  0  0  0  0  0  0  0  0  0  0  0
   -0.1477    1.6669   -0.4105 H   0  0  0  0  0  0  0  0  0  0  0  0
    0.1031   -0.3279   -2.4598 H   0  0  0  0  0  0  0  0  0  0  0  0
   -1.6526   -1.6604   -1.2207 H   0  0  0  0  0  0  0  0  0  0  0  0
   -0.5496   -1.9156    1.0846 H   0  0  0  0  0  0  0  0  0  0  0  0
   -2.7837    1.7234    0.8936 H   0  0  0  0  0  0  0  0  0  0  0  0
    1.1570   -2.0055   -0.3931 H   0  0  0  0  0  0  0  0  0  0  0  0
    2.2236   -0.7324   -1.2402 H   0  0  0  0  0  0  0  0  0  0  0  0
  1  2  1  0
  2  3  1  0
  3  4  1  0
  4  5  1  0
  5  6  1  0
  6  7  1  0
  7  8  2  0
  7  9  1  0
  9 10  1  0
 10 11  2  0
  4 12  1  0
 12  2  1  0
 10  5  1  0
  1 13  1  0
  1 14  1  0
  1 15  1  0
  3 16  1  0
  3 17  1  0
  4 18  1  0
  5 19  1  6
  6 20  1  0
  9 21  1  0
 12 22  1  0
 12 23  1  0
M  END
$$$$

     RDKit          3D

 23 24  0  0  0  0  0  0  0  0999 V2000
   -3.2870   -0.3103   -0.0906 C   0  0  0  0  0  0  0  0  0  0  0  0
   -1.9808    0.0617   -0.5192 N   0  0  0  0  0  0  0  0  0  0  0  0
   -1.1318    0.6840    0.4958 C   0  0  0  0  0  0  0  0  0  0  0  0
    0.0207    0.0536   -0.2593 C   0  0  0  0  0  0  0  0  0  0  0  0
    1.2022   -0.3360    0.5728 C   0  0  1  0  0  0  0  0  0  0  0  0
    2.1916   -0.9148   -0.3104 N   0  0  0  0  0  0  0  0  0  0  0  0
    2.8961    0.1859   -0.8696 C   0  0  0  0  0  0  0  0  0  0  0  0
    3.6019    0.2161   -1.9176 O   0  0  0  0  0  0  0  0  0  0  0  0
    2.6918    1.3451   -0.0351 N   0  0  0  0  0  0  0  0  0  0  0  0
    1.8610    0.9068    1.0153 C   0  0  0  0  0  0  0  0  0  0  0  0
    1.6982    1.4515    2.1195 O   0  0  0  0  0  0  0  0  0  0  0  0
   -0.9918   -1.0288   -0.5279 C   0  0  0  0  0  0  0  0  0  0  0  0
   -3.7633    0.5940    0.3773 H   0  0  0  0  0  0  0  0  0  0  0  0
   -3.3382   -1.2008    0.5381 H   0  0  0  0  0  0  0  0  0  0  0  0
   -3.8959   -0.4886   -1.0192 H   0  0  0  0  0  0  0  0  0  0  0  0
   -1.2557    0.2357    1.5164 H   0  0  0  0  0  0  0  0  0  0  0  0
   -1.1441    1.7797    0.4907 H   0  0  0  0  0  0  0  0  0  0  0  0
    0.3089    0.6186   -1.1385 H   0  0  0  0  0  0  0  0  0  0  0  0
    0.9378   -1.0089    1.4093 H   0  0  0  0  0  0  0  0  0  0  0  0
    2.3711   -1.9202   -0.5121 H   0  0  0  0  0  0  0  0  0  0  0  0
    3.0992    2.3113   -0.2084 H   0  0  0  0  0  0  0  0  0  0  0  0
   -0.8985   -1.5592   -1.4747 H   0  0  0  0  0  0  0  0  0  0  0  0
   -1.1933   -1.6766    0.3473 H   0  0  0  0  0  0  0  0  0  0  0  0
  1  2  1  0
  2  3  1  0
  3  4  1  0
  4  5  1  0
  5  6  1  0
  6  7  1  0
  7  8  2  0
  7  9  1  0
  9 10  1  0
 10 11  2  0
  4 12  1  0
 12  2  1  0
 10  5  1  0
  1 13  1  0
  1 14  1  0
  1 15  1  0
  3 16  1  0
  3 17  1  0
  4 18  1  0
  5 19  1  1
  6 20  1  0
  9 21  1  0
 12 22  1  0
 12 23  1  0
M  END
$$$$

     RDKit          3D

 23 24  0  0  0  0  0  0  0  0999 V2000
    2.4492    0.5617    1.3380 C   0  0  0  0  0  0  0  0  0  0  0  0
    1.2035    0.2607    0.6640 N   0  0  0  0  0  0  0  0  0  0  0  0
    1.0499    0.8987   -0.6305 C   0  0  0  0  0  0  0  0  0  0  0  0
    0.3588   -0.3658   -1.0991 C   0  0  0  0  0  0  0  0  0  0  0  0
   -1.0839   -0.4837   -0.7068 C   0  0  1  0  0  0  0  0  0  0  0  0
   -1.3125   -0.4714    0.6976 N   0  0  0  0  0  0  0  0  0  0  0  0
   -2.5240    0.2277    0.9317 C   0  0  0  0  0  0  0  0  0  0  0  0
   -3.2041    0.2724    2.0114 O   0  0  0  0  0  0  0  0  0  0  0  0
   -2.8976    0.9090   -0.2655 N   0  0  0  0  0  0  0  0  0  0  0  0
   -1.9102    0.6215   -1.2261 C   0  0  0  0  0  0  0  0  0  0  0  0
   -1.7525    1.1937   -2.3257 O   0  0  0  0  0  0  0  0  0  0  0  0
    1.2400   -1.0187   -0.0544 C   0  0  0  0  0  0  0  0  0  0  0  0
    2.7230   -0.3466    1.9173 H   0  0  0  0  0  0  0  0  0  0  0  0
    2.2654    1.3695    2.0505 H   0  0  0  0  0  0  0  0  0  0  0  0
    3.2541    0.8167    0.6206 H   0  0  0  0  0  0  0  0  0  0  0  0
    0.4519    1.8113   -0.6438 H   0  0  0  0  0  0  0  0  0  0  0  0
    2.0202    1.0121   -1.1432 H   0  0  0  0  0  0  0  0  0  0  0  0
    0.5676   -0.6692   -2.1372 H   0  0  0  0  0  0  0  0  0  0  0  0
   -1.4694   -1.4206   -1.1800 H   0  0  0  0  0  0  0  0  0  0  0  0
   -0.7355   -0.8808    1.4561 H   0  0  0  0  0  0  0  0  0  0  0  0
   -3.7476    1.4997   -0.3744 H   0  0  0  0  0  0  0  0  0  0  0  0
    0.7950   -1.8399    0.5134 H   0  0  0  0  0  0  0  0  0  0  0  0
    2.2587   -1.2811   -0.4136 H   0  0  0  0  0  0  0  0  0  0  0  0
  1  2  1  0
  2  3  1  0
  3  4  1  0
  4  5  1  0
  5  6  1  0
  6  7  1  0
  7  8  2  0
  7  9  1  0
  9 10  1  0
 10 11  2  0
  4 12  1  0
 12  2  1  0
 10  5  1  0
  1 13  1  0
  1 14  1  0
  1 15  1  0
  3 16  1  0
  3 17  1  0
  4 18  1  0
  5 19  1  6
  6 20  1  0
  9 21  1  0
 12 22  1  0
 12 23  1  0
M  END
$$$$

     RDKit          3D

 23 24  0  0  0  0  0  0  0  0999 V2000
   -3.3517   -0.3318   -0.1361 C   0  0  0  0  0  0  0  0  0  0  0  0
   -2.0551   -0.1124   -0.6678 N   0  0  0  0  0  0  0  0  0  0  0  0
   -0.9980   -0.9933   -0.1443 C   0  0  0  0  0  0  0  0  0  0  0  0
   -0.0607    0.1709   -0.3944 C   0  0  0  0  0  0  0  0  0  0  0  0
    1.0799    0.2675    0.5787 C   0  0  1  0  0  0  0  0  0  0  0  0
    1.8398   -0.9660    0.4643 N   0  0  0  0  0  0  0  0  0  0  0  0
    3.1577   -0.6771    0.0171 C   0  0  0  0  0  0  0  0  0  0  0  0
    4.0840   -1.5093   -0.1934 O   0  0  0  0  0  0  0  0  0  0  0  0
    3.2511    0.7326   -0.1538 N   0  0  0  0  0  0  0  0  0  0  0  0
    2.0046    1.3283    0.1821 C   0  0  0  0  0  0  0  0  0  0  0  0
    1.8008    2.5651    0.1253 O   0  0  0  0  0  0  0  0  0  0  0  0
   -1.2889    0.9793   -0.0443 C   0  0  0  0  0  0  0  0  0  0  0  0
   -3.4412   -1.3983    0.1766 H   0  0  0  0  0  0  0  0  0  0  0  0
   -3.6745    0.3751    0.6438 H   0  0  0  0  0  0  0  0  0  0  0  0
   -4.0919   -0.2119   -0.9799 H   0  0  0  0  0  0  0  0  0  0  0  0
   -0.8125   -1.8848   -0.7418 H   0  0  0  0  0  0  0  0  0  0  0  0
   -1.0954   -1.1499    0.9611 H   0  0  0  0  0  0  0  0  0  0  0  0
    0.2320    0.2408   -1.4426 H   0  0  0  0  0  0  0  0  0  0  0  0
    0.6932    0.3513    1.6024 H   0  0  0  0  0  0  0  0  0  0  0  0
    1.5025   -1.9287    0.6699 H   0  0  0  0  0  0  0  0  0  0  0  0
    4.1180    1.2131   -0.4770 H   0  0  0  0  0  0  0  0  0  0  0  0
   -1.5211    0.9936    1.0253 H   0  0  0  0  0  0  0  0  0  0  0  0
   -1.3726    1.9458   -0.5872 H   0  0  0  0  0  0  0  0  0  0  0  0
  1  2  1  0
  2  3  1  0
  3  4  1  0
  4  5  1  0
  5  6  1  0
  6  7  1  0
  7  8  2  0
  7  9  1  0
  9 10  1  0
 10 11  2  0
  4 12  1  0
 12  2  1  0
 10  5  1  0
  1 13  1  0
  1 14  1  0
  1 15  1  0
  3 16  1  0
  3 17  1  0
  4 18  1  0
  5 19  1  1
  6 20  1  0
  9 21  1  0
 12 22  1  0
 12 23  1  0
M  END
$$$$

     RDKit          3D

 23 24  0  0  0  0  0  0  0  0999 V2000
   -2.4633    0.6047    0.5297 C   0  0  0  0  0  0  0  0  0  0  0  0
   -1.1325    0.1265    0.2638 N   0  0  0  0  0  0  0  0  0  0  0  0
   -0.5548    0.5809   -0.9985 C   0  0  0  0  0  0  0  0  0  0  0  0
    0.1418   -0.7570   -1.0610 C   0  0  0  0  0  0  0  0  0  0  0  0
    1.3528   -0.8826   -0.1996 C   0  0  1  0  0  0  0  0  0  0  0  0
    2.3912    0.0629   -0.5336 N   0  0  0  0  0  0  0  0  0  0  0  0
    2.2005    1.1887    0.3097 C   0  0  0  0  0  0  0  0  0  0  0  0
    2.7148    2.3311    0.1099 O   0  0  0  0  0  0  0  0  0  0  0  0
    1.3461    0.8130    1.3975 N   0  0  0  0  0  0  0  0  0  0  0  0
    1.0167   -0.5750    1.2005 C   0  0  0  0  0  0  0  0  0  0  0  0
    0.5358   -1.2978    2.1248 O   0  0  0  0  0  0  0  0  0  0  0  0
   -1.0940   -1.2197   -0.3260 C   0  0  0  0  0  0  0  0  0  0  0  0
   -2.5195    0.8189    1.6207 H   0  0  0  0  0  0  0  0  0  0  0  0
   -2.7575    1.4738   -0.0868 H   0  0  0  0  0  0  0  0  0  0  0  0
   -3.1622   -0.2411    0.3480 H   0  0  0  0  0  0  0  0  0  0  0  0
    0.1012    1.4532   -0.9326 H   0  0  0  0  0  0  0  0  0  0  0  0
   -1.2997    0.7278   -1.7959 H   0  0  0  0  0  0  0  0  0  0  0  0
    0.2368   -1.1864   -2.0806 H   0  0  0  0  0  0  0  0  0  0  0  0
    1.7183   -1.9450   -0.3069 H   0  0  0  0  0  0  0  0  0  0  0  0
    3.1149   -0.1004   -1.2612 H   0  0  0  0  0  0  0  0  0  0  0  0
    1.0142    1.4204    2.1937 H   0  0  0  0  0  0  0  0  0  0  0  0
   -0.9338   -1.9749    0.4659 H   0  0  0  0  0  0  0  0  0  0  0  0
   -1.9678   -1.4220   -0.9815 H   0  0  0  0  0  0  0  0  0  0  0  0
  1  2  1  0
  2  3  1  0
  3  4  1  0
  4  5  1  0
  5  6  1  0
  6  7  1  0
  7  8  2  0
  7  9  1  0
  9 10  1  0
 10 11  2  0
  4 12  1  0
 12  2  1  0
 10  5  1  0
  1 13  1  0
  1 14  1  0
  1 15  1  0
  3 16  1  0
  3 17  1  0
  4 18  1  0
  5 19  1  1
  6 20  1  0
  9 21  1  0
 12 22  1  0
 12 23  1  0
M  END
$$$$

     RDKit          3D

 23 24  0  0  0  0  0  0  0  0999 V2000
    2.9140    0.7415    0.1109 C   0  0  0  0  0  0  0  0  0  0  0  0
    2.2189   -0.4198   -0.4186 N   0  0  0  0  0  0  0  0  0  0  0  0
    1.3234   -0.9531    0.6238 C   0  0  0  0  0  0  0  0  0  0  0  0
    0.4013    0.1685    0.2759 C   0  0  0  0  0  0  0  0  0  0  0  0
   -1.0470   -0.0769    0.4521 C   0  0  1  0  0  0  0  0  0  0  0  0
   -1.8242    1.0645    0.0883 N   0  0  0  0  0  0  0  0  0  0  0  0
   -3.1091    0.5844   -0.2930 C   0  0  0  0  0  0  0  0  0  0  0  0
   -4.1976    1.2447   -0.3786 O   0  0  0  0  0  0  0  0  0  0  0  0
   -2.9806   -0.8200   -0.5782 N   0  0  0  0  0  0  0  0  0  0  0  0
   -1.6117   -1.1520   -0.3596 C   0  0  0  0  0  0  0  0  0  0  0  0
   -1.1099   -2.2049   -0.8338 O   0  0  0  0  0  0  0  0  0  0  0  0
    0.9800    0.0062   -1.0959 C   0  0  0  0  0  0  0  0  0  0  0  0
    2.8139    0.8325    1.2119 H   0  0  0  0  0  0  0  0  0  0  0  0
    2.4924    1.6755   -0.3161 H   0  0  0  0  0  0  0  0  0  0  0  0
    4.0127    0.6833   -0.0944 H   0  0  0  0  0  0  0  0  0  0  0  0
    1.7636   -0.9301    1.6362 H   0  0  0  0  0  0  0  0  0  0  0  0
    1.0205   -1.9683    0.3171 H   0  0  0  0  0  0  0  0  0  0  0  0
    0.7215    1.1090    0.7282 H   0  0  0  0  0  0  0  0  0  0  0  0
   -1.2262   -0.3252    1.5356 H   0  0  0  0  0  0  0  0  0  0  0  0
   -1.5785    2.0805    0.0754 H   0  0  0  0  0  0  0  0  0  0  0  0
   -3.7759   -1.4276   -0.8833 H   0  0  0  0  0  0  0  0  0  0  0  0
    1.1888    0.9269   -1.6529 H   0  0  0  0  0  0  0  0  0  0  0  0
    0.6096   -0.8396   -1.6975 H   0  0  0  0  0  0  0  0  0  0  0  0
  1  2  1  0
  2  3  1  0
  3  4  1  0
  4  5  1  0
  5  6  1  0
  6  7  1  0
  7  8  2  0
  7  9  1  0
  9 10  1  0
 10 11  2  0
  4 12  1  0
 12  2  1  0
 10  5  1  0
  1 13  1  0
  1 14  1  0
  1 15  1  0
  3 16  1  0
  3 17  1  0
  4 18  1  0
  5 19  1  1
  6 20  1  0
  9 21  1  0
 12 22  1  0
 12 23  1  0
M  END
$$$$
