
     RDKit          3D

 22 22  0  0  0  0  0  0  0  0999 V2000
   -1.9061    0.6110   -1.2299 C   0  0  0  0  0  0  0  0  0  0  0  0
   -1.5484    0.2926    0.1283 N   0  0  0  0  0  0  0  0  0  0  0  0
   -0.4935   -0.4318    0.5111 C   0  0  0  0  0  0  0  0  0  0  0  0
    0.5892   -1.0737   -0.2985 C   0  0  2  0  0  0  0  0  0  0  0  0
    0.6817   -2.4667    0.1034 N   0  0  0  0  0  0  0  0  0  0  0  0
    1.8622   -0.3310    0.0477 C   0  0  0  0  0  0  0  0  0  0  0  0
    1.7563    1.1026   -0.2966 C   0  0  0  0  0  0  0  0  0  0  0  0
    1.4819    1.4818   -1.4599 O   0  0  0  0  0  0  0  0  0  0  0  0
    1.9641    2.0855    0.6869 O   0  0  0  0  0  0  0  0  0  0  0  0
   -0.5546   -0.4916    1.8713 N   0  0  0  0  0  0  0  0  0  0  0  0
   -1.5920    0.1655    2.2502 O   0  0  0  0  0  0  0  0  0  0  0  0
   -2.2199    0.6552    1.2347 C   0  0  0  0  0  0  0  0  0  0  0  0
   -3.2806    1.3540    1.2699 O   0  0  0  0  0  0  0  0  0  0  0  0
   -1.9573   -0.3627   -1.7999 H   0  0  0  0  0  0  0  0  0  0  0  0
   -1.2032    1.3083   -1.6802 H   0  0  0  0  0  0  0  0  0  0  0  0
   -2.9100    1.1196   -1.2764 H   0  0  0  0  0  0  0  0  0  0  0  0
    0.3349   -1.0457   -1.3586 H   0  0  0  0  0  0  0  0  0  0  0  0
    1.2629   -2.6265    0.9312 H   0  0  0  0  0  0  0  0  0  0  0  0
    0.8626   -3.0970   -0.6929 H   0  0  0  0  0  0  0  0  0  0  0  0
    2.0196   -0.4314    1.1399 H   0  0  0  0  0  0  0  0  0  0  0  0
    2.7205   -0.8374   -0.4539 H   0  0  0  0  0  0  0  0  0  0  0  0
    2.1297    3.0196    0.3723 H   0  0  0  0  0  0  0  0  0  0  0  0
  1  2  1  0
  2  3  1  0
  3  4  1  0
  4  5  1  0
  4  6  1  0
  6  7  1  0
  7  8  2  0
  7  9  1  0
  3 10  2  0
 10 11  1  0
 11 12  1  0
 12 13  2  0
 12  2  1  0
  1 14  1  0
  1 15  1  0
  1 16  1  0
  4 17  1  6
  5 18  1  0
  5 19  1  0
  6 20  1  0
  6 21  1  0
  9 22  1  0
M  END
$$$$

     RDKit          3D

 22 22  0  0  0  0  0  0  0  0999 V2000
   -2.0716    1.4883   -0.0600 C   0  0  0  0  0  0  0  0  0  0  0  0
   -2.0026    0.0544    0.1726 N   0  0  0  0  0  0  0  0  0  0  0  0
   -0.8530   -0.6002    0.4047 C   0  0  0  0  0  0  0  0  0  0  0  0
    0.5236   -0.0214    0.4692 C   0  0  2  0  0  0  0  0  0  0  0  0
    0.6508    0.8775   -0.6517 N   0  0  0  0  0  0  0  0  0  0  0  0
    1.5094   -1.1587    0.2968 C   0  0  0  0  0  0  0  0  0  0  0  0
    2.9060   -0.6501    0.3511 C   0  0  0  0  0  0  0  0  0  0  0  0
    3.8972   -1.3836    0.2356 O   0  0  0  0  0  0  0  0  0  0  0  0
    3.1058    0.7263    0.5423 O   0  0  0  0  0  0  0  0  0  0  0  0
   -1.1847   -1.8804    0.5680 N   0  0  0  0  0  0  0  0  0  0  0  0
   -2.4726   -1.9869    0.4396 O   0  0  0  0  0  0  0  0  0  0  0  0
   -3.0129   -0.8281    0.1971 C   0  0  0  0  0  0  0  0  0  0  0  0
   -4.2214   -0.5422    0.0161 O   0  0  0  0  0  0  0  0  0  0  0  0
   -1.5816    2.0362    0.7844 H   0  0  0  0  0  0  0  0  0  0  0  0
   -1.5584    1.7393   -1.0007 H   0  0  0  0  0  0  0  0  0  0  0  0
   -3.1377    1.7963   -0.1785 H   0  0  0  0  0  0  0  0  0  0  0  0
    0.6582    0.4931    1.4344 H   0  0  0  0  0  0  0  0  0  0  0  0
    1.1723    0.4219   -1.4048 H   0  0  0  0  0  0  0  0  0  0  0  0
    1.0115    1.8140   -0.3648 H   0  0  0  0  0  0  0  0  0  0  0  0
    1.4086   -1.9178    1.0943 H   0  0  0  0  0  0  0  0  0  0  0  0
    1.3313   -1.6776   -0.6593 H   0  0  0  0  0  0  0  0  0  0  0  0
    3.9220    1.1997    0.1536 H   0  0  0  0  0  0  0  0  0  0  0  0
  1  2  1  0
  2  3  1  0
  3  4  1  0
  4  5  1  0
  4  6  1  0
  6  7  1  0
  7  8  2  0
  7  9  1  0
  3 10  2  0
 10 11  1  0
 11 12  1  0
 12 13  2  0
 12  2  1  0
  1 14  1  0
  1 15  1  0
  1 16  1  0
  4 17  1  1
  5 18  1  0
  5 19  1  0
  6 20  1  0
  6 21  1  0
  9 22  1  0
M  END
$$$$

     RDKit          3D

 22 22  0  0  0  0  0  0  0  0999 V2000
   -2.0638   -1.0691   -0.4192 C   0  0  0  0  0  0  0  0  0  0  0  0
   -1.8659    0.3354   -0.2882 N   0  0  0  0  0  0  0  0  0  0  0  0
   -0.7057    0.9962   -0.3149 C   0  0  0  0  0  0  0  0  0  0  0  0
    0.6535    0.4447   -0.4918 C   0  0  2  0  0  0  0  0  0  0  0  0
    0.7332   -0.4870   -1.5815 N   0  0  0  0  0  0  0  0  0  0  0  0
    1.2136   -0.1129    0.7949 C   0  0  0  0  0  0  0  0  0  0  0  0
    2.5739   -0.6301    0.5336 C   0  0  0  0  0  0  0  0  0  0  0  0
    2.8311   -1.7600    0.0602 O   0  0  0  0  0  0  0  0  0  0  0  0
    3.6490    0.1944    0.8339 O   0  0  0  0  0  0  0  0  0  0  0  0
   -1.0252    2.2950   -0.1486 N   0  0  0  0  0  0  0  0  0  0  0  0
   -2.3265    2.3862   -0.0299 O   0  0  0  0  0  0  0  0  0  0  0  0
   -2.8876    1.2159   -0.1080 C   0  0  0  0  0  0  0  0  0  0  0  0
   -4.0950    0.9051   -0.0402 O   0  0  0  0  0  0  0  0  0  0  0  0
   -1.2228   -1.6691   -0.7341 H   0  0  0  0  0  0  0  0  0  0  0  0
   -2.5572   -1.4286    0.5146 H   0  0  0  0  0  0  0  0  0  0  0  0
   -2.8675   -1.2020   -1.2053 H   0  0  0  0  0  0  0  0  0  0  0  0
    1.3619    1.2872   -0.7676 H   0  0  0  0  0  0  0  0  0  0  0  0
    1.0561   -1.4298   -1.3589 H   0  0  0  0  0  0  0  0  0  0  0  0
    1.1711   -0.0731   -2.4566 H   0  0  0  0  0  0  0  0  0  0  0  0
    1.2240    0.6631    1.5869 H   0  0  0  0  0  0  0  0  0  0  0  0
    0.6158   -0.9588    1.1871 H   0  0  0  0  0  0  0  0  0  0  0  0
    4.5340    0.0974    0.3215 H   0  0  0  0  0  0  0  0  0  0  0  0
  1  2  1  0
  2  3  1  0
  3  4  1  0
  4  5  1  0
  4  6  1  0
  6  7  1  0
  7  8  2  0
  7  9  1  0
  3 10  2  0
 10 11  1  0
 11 12  1  0
 12 13  2  0
 12  2  1  0
  1 14  1  0
  1 15  1  0
  1 16  1  0
  4 17  1  6
  5 18  1  0
  5 19  1  0
  6 20  1  0
  6 21  1  0
  9 22  1  0
M  END
$$$$

     RDKit          3D

 22 22  0  0  0  0  0  0  0  0999 V2000
    1.4591    1.5324   -0.0979 C   0  0  0  0  0  0  0  0  0  0  0  0
    1.5215    0.1775    0.3755 N   0  0  0  0  0  0  0  0  0  0  0  0
    0.6669   -0.7977    0.0100 C   0  0  0  0  0  0  0  0  0  0  0  0
   -0.5094   -0.8218   -0.8528 C   0  0  2  0  0  0  0  0  0  0  0  0
   -0.4824    0.1083   -1.9563 N   0  0  0  0  0  0  0  0  0  0  0  0
   -1.7635   -0.9184   -0.0917 C   0  0  0  0  0  0  0  0  0  0  0  0
   -2.1041    0.1185    0.8612 C   0  0  0  0  0  0  0  0  0  0  0  0
   -3.2097   -0.0673    1.4935 O   0  0  0  0  0  0  0  0  0  0  0  0
   -1.4393    1.2613    1.1953 O   0  0  0  0  0  0  0  0  0  0  0  0
    1.1215   -1.8956    0.6838 N   0  0  0  0  0  0  0  0  0  0  0  0
    2.1520   -1.5668    1.3767 O   0  0  0  0  0  0  0  0  0  0  0  0
    2.4382   -0.3123    1.2243 C   0  0  0  0  0  0  0  0  0  0  0  0
    3.3868    0.2947    1.7722 O   0  0  0  0  0  0  0  0  0  0  0  0
    2.3695    1.7668   -0.7243 H   0  0  0  0  0  0  0  0  0  0  0  0
    1.5318    2.2358    0.7757 H   0  0  0  0  0  0  0  0  0  0  0  0
    0.5387    1.7905   -0.6284 H   0  0  0  0  0  0  0  0  0  0  0  0
   -0.4308   -1.8395   -1.3999 H   0  0  0  0  0  0  0  0  0  0  0  0
    0.3941   -0.0919   -2.4951 H   0  0  0  0  0  0  0  0  0  0  0  0
   -1.2730   -0.1294   -2.5858 H   0  0  0  0  0  0  0  0  0  0  0  0
   -1.7818   -1.9320    0.4092 H   0  0  0  0  0  0  0  0  0  0  0  0
   -2.6107   -0.9868   -0.8276 H   0  0  0  0  0  0  0  0  0  0  0  0
   -1.9755    2.0737    1.4826 H   0  0  0  0  0  0  0  0  0  0  0  0
  1  2  1  0
  2  3  1  0
  3  4  1  0
  4  5  1  0
  4  6  1  0
  6  7  1  0
  7  8  2  0
  7  9  1  0
  3 10  2  0
 10 11  1  0
 11 12  1  0
 12 13  2  0
 12  2  1  0
  1 14  1  0
  1 15  1  0
  1 16  1  0
  4 17  1  6
  5 18  1  0
  5 19  1  0
  6 20  1  0
  6 21  1  0
  9 22  1  0
M  END
$$$$

     RDKit          3D

 22 22  0  0  0  0  0  0  0  0999 V2000
    1.7890    1.2517    0.9516 C   0  0  0  0  0  0  0  0  0  0  0  0
    1.5866    0.2202   -0.0299 N   0  0  0  0  0  0  0  0  0  0  0  0
    0.5488   -0.6285   -0.0946 C   0  0  0  0  0  0  0  0  0  0  0  0
   -0.6473   -0.7353    0.7824 C   0  0  2  0  0  0  0  0  0  0  0  0
   -0.7219   -2.1751    1.1144 N   0  0  0  0  0  0  0  0  0  0  0  0
   -1.8791   -0.4522   -0.0295 C   0  0  0  0  0  0  0  0  0  0  0  0
   -1.9279    0.8750   -0.6484 C   0  0  0  0  0  0  0  0  0  0  0  0
   -2.9788    1.1064   -1.3455 O   0  0  0  0  0  0  0  0  0  0  0  0
   -0.9883    1.8675   -0.5595 O   0  0  0  0  0  0  0  0  0  0  0  0
    0.8006   -1.4081   -1.1680 N   0  0  0  0  0  0  0  0  0  0  0  0
    1.9318   -1.0312   -1.7036 O   0  0  0  0  0  0  0  0  0  0  0  0
    2.4480   -0.0300   -1.0316 C   0  0  0  0  0  0  0  0  0  0  0  0
    3.5355    0.5453   -1.3113 O   0  0  0  0  0  0  0  0  0  0  0  0
    2.5623    0.9100    1.6927 H   0  0  0  0  0  0  0  0  0  0  0  0
    0.8598    1.5609    1.4552 H   0  0  0  0  0  0  0  0  0  0  0  0
    2.2279    2.1340    0.4246 H   0  0  0  0  0  0  0  0  0  0  0  0
   -0.5540   -0.1178    1.6710 H   0  0  0  0  0  0  0  0  0  0  0  0
   -1.4751   -2.3449    1.7962 H   0  0  0  0  0  0  0  0  0  0  0  0
   -0.9827   -2.6405    0.2042 H   0  0  0  0  0  0  0  0  0  0  0  0
   -2.0332   -1.2050   -0.8254 H   0  0  0  0  0  0  0  0  0  0  0  0
   -2.7913   -0.5306    0.6305 H   0  0  0  0  0  0  0  0  0  0  0  0
   -1.3106    2.8283   -0.4170 H   0  0  0  0  0  0  0  0  0  0  0  0
  1  2  1  0
  2  3  1  0
  3  4  1  0
  4  5  1  0
  4  6  1  0
  6  7  1  0
  7  8  2  0
  7  9  1  0
  3 10  2  0
 10 11  1  0
 11 12  1  0
 12 13  2  0
 12  2  1  0
  1 14  1  0
  1 15  1  0
  1 16  1  0
  4 17  1  1
  5 18  1  0
  5 19  1  0
  6 20  1  0
  6 21  1  0
  9 22  1  0
M  END
$$$$

     RDKit          3D

 22 22  0  0  0  0  0  0  0  0999 V2000
   -1.8696    1.8033   -0.1661 C   0  0  0  0  0  0  0  0  0  0  0  0
   -1.8881    0.4091    0.1746 N   0  0  0  0  0  0  0  0  0  0  0  0
   -0.8690   -0.4008    0.4381 C   0  0  0  0  0  0  0  0  0  0  0  0
    0.5704   -0.0358    0.4400 C   0  0  2  0  0  0  0  0  0  0  0  0
    0.8994    0.7634   -0.7238 N   0  0  0  0  0  0  0  0  0  0  0  0
    1.3833   -1.3230    0.3588 C   0  0  0  0  0  0  0  0  0  0  0  0
    2.8381   -1.0219    0.3571 C   0  0  0  0  0  0  0  0  0  0  0  0
    3.6445   -1.9781    0.2941 O   0  0  0  0  0  0  0  0  0  0  0  0
    3.3044    0.2803    0.4231 O   0  0  0  0  0  0  0  0  0  0  0  0
   -1.3881   -1.6103    0.7017 N   0  0  0  0  0  0  0  0  0  0  0  0
   -2.6811   -1.5285    0.5995 O   0  0  0  0  0  0  0  0  0  0  0  0
   -3.0235   -0.3129    0.2795 C   0  0  0  0  0  0  0  0  0  0  0  0
   -4.2049    0.0652    0.1117 O   0  0  0  0  0  0  0  0  0  0  0  0
   -2.7363    2.2810    0.3694 H   0  0  0  0  0  0  0  0  0  0  0  0
   -2.0354    1.9520   -1.2538 H   0  0  0  0  0  0  0  0  0  0  0  0
   -0.9617    2.3379    0.1568 H   0  0  0  0  0  0  0  0  0  0  0  0
    0.8409    0.5257    1.3475 H   0  0  0  0  0  0  0  0  0  0  0  0
    1.6766    0.3362   -1.2749 H   0  0  0  0  0  0  0  0  0  0  0  0
    0.0676    0.7925   -1.3729 H   0  0  0  0  0  0  0  0  0  0  0  0
    1.1241   -2.0013    1.2015 H   0  0  0  0  0  0  0  0  0  0  0  0
    1.1296   -1.8557   -0.5805 H   0  0  0  0  0  0  0  0  0  0  0  0
    4.1787    0.5218   -0.0030 H   0  0  0  0  0  0  0  0  0  0  0  0
  1  2  1  0
  2  3  1  0
  3  4  1  0
  4  5  1  0
  4  6  1  0
  6  7  1  0
  7  8  2  0
  7  9  1  0
  3 10  2  0
 10 11  1  0
 11 12  1  0
 12 13  2  0
 12  2  1  0
  1 14  1  0
  1 15  1  0
  1 16  1  0
  4 17  1  1
  5 18  1  0
  5 19  1  0
  6 20  1  0
  6 21  1  0
  9 22  1  0
M  END
$$$$

     RDKit          3D

 22 22  0  0  0  0  0  0  0  0999 V2000
   -2.5387    0.6438    0.6558 C   0  0  0  0  0  0  0  0  0  0  0  0
   -1.7627   -0.3422   -0.0453 N   0  0  0  0  0  0  0  0  0  0  0  0
   -0.4738   -0.3005   -0.4105 C   0  0  0  0  0  0  0  0  0  0  0  0
    0.4444    0.8259   -0.1508 C   0  0  2  0  0  0  0  0  0  0  0  0
    1.1793    1.0566   -1.3896 N   0  0  0  0  0  0  0  0  0  0  0  0
    1.4157    0.4645    0.9608 C   0  0  0  0  0  0  0  0  0  0  0  0
    2.2116   -0.7208    0.5731 C   0  0  0  0  0  0  0  0  0  0  0  0
    1.7981   -1.8974    0.6614 O   0  0  0  0  0  0  0  0  0  0  0  0
    3.4934   -0.5213    0.0816 O   0  0  0  0  0  0  0  0  0  0  0  0
   -0.2222   -1.4611   -1.0368 N   0  0  0  0  0  0  0  0  0  0  0  0
   -1.3033   -2.1957   -1.0623 O   0  0  0  0  0  0  0  0  0  0  0  0
   -2.2550   -1.5382   -0.4661 C   0  0  0  0  0  0  0  0  0  0  0  0
   -3.4361   -1.9483   -0.3084 O   0  0  0  0  0  0  0  0  0  0  0  0
   -1.9236    1.4968    0.9513 H   0  0  0  0  0  0  0  0  0  0  0  0
   -3.3356    1.0455   -0.0302 H   0  0  0  0  0  0  0  0  0  0  0  0
   -3.0291    0.1972    1.5598 H   0  0  0  0  0  0  0  0  0  0  0  0
   -0.0940    1.7609    0.1037 H   0  0  0  0  0  0  0  0  0  0  0  0
    2.2024    1.0846   -1.2062 H   0  0  0  0  0  0  0  0  0  0  0  0
    0.8225    1.8881   -1.9031 H   0  0  0  0  0  0  0  0  0  0  0  0
    2.0730    1.3338    1.1722 H   0  0  0  0  0  0  0  0  0  0  0  0
    0.8203    0.2827    1.8787 H   0  0  0  0  0  0  0  0  0  0  0  0
    3.9133   -1.1550   -0.5890 H   0  0  0  0  0  0  0  0  0  0  0  0
  1  2  1  0
  2  3  1  0
  3  4  1  0
  4  5  1  0
  4  6  1  0
  6  7  1  0
  7  8  2  0
  7  9  1  0
  3 10  2  0
 10 11  1  0
 11 12  1  0
 12 13  2  0
 12  2  1  0
  1 14  1  0
  1 15  1  0
  1 16  1  0
  4 17  1  1
  5 18  1  0
  5 19  1  0
  6 20  1  0
  6 21  1  0
  9 22  1  0
M  END
$$$$

     RDKit          3D

 22 22  0  0  0  0  0  0  0  0999 V2000
   -1.7445   -1.4328    0.9402 C   0  0  0  0  0  0  0  0  0  0  0  0
   -1.6277   -0.3610    0.0004 N   0  0  0  0  0  0  0  0  0  0  0  0
   -0.6632    0.5390   -0.0781 C   0  0  0  0  0  0  0  0  0  0  0  0
    0.5566    0.6864    0.7436 C   0  0  2  0  0  0  0  0  0  0  0  0
    0.5908    2.0404    1.2161 N   0  0  0  0  0  0  0  0  0  0  0  0
    1.7682    0.5249   -0.1482 C   0  0  0  0  0  0  0  0  0  0  0  0
    1.8534   -0.7764   -0.8260 C   0  0  0  0  0  0  0  0  0  0  0  0
    1.0030   -1.6843   -0.6804 O   0  0  0  0  0  0  0  0  0  0  0  0
    2.9464   -1.0047   -1.6780 O   0  0  0  0  0  0  0  0  0  0  0  0
   -0.9602    1.3757   -1.1097 N   0  0  0  0  0  0  0  0  0  0  0  0
   -2.0775    0.9867   -1.6391 O   0  0  0  0  0  0  0  0  0  0  0  0
   -2.5063   -0.0633   -0.9883 C   0  0  0  0  0  0  0  0  0  0  0  0
   -3.5461   -0.7263   -1.1957 O   0  0  0  0  0  0  0  0  0  0  0  0
   -1.5010   -2.4266    0.4956 H   0  0  0  0  0  0  0  0  0  0  0  0
   -2.8243   -1.4606    1.2670 H   0  0  0  0  0  0  0  0  0  0  0  0
   -1.1594   -1.2465    1.8621 H   0  0  0  0  0  0  0  0  0  0  0  0
    0.5907    0.0107    1.5979 H   0  0  0  0  0  0  0  0  0  0  0  0
    1.2208    2.2440    1.9738 H   0  0  0  0  0  0  0  0  0  0  0  0
    0.3336    2.7587    0.5594 H   0  0  0  0  0  0  0  0  0  0  0  0
    1.8192    1.3443   -0.9032 H   0  0  0  0  0  0  0  0  0  0  0  0
    2.7147    0.6384    0.4529 H   0  0  0  0  0  0  0  0  0  0  0  0
    3.2127   -1.9668   -1.8624 H   0  0  0  0  0  0  0  0  0  0  0  0
  1  2  1  0
  2  3  1  0
  3  4  1  0
  4  5  1  0
  4  6  1  0
  6  7  1  0
  7  8  2  0
  7  9  1  0
  3 10  2  0
 10 11  1  0
 11 12  1  0
 12 13  2  0
 12  2  1  0
  1 14  1  0
  1 15  1  0
  1 16  1  0
  4 17  1  1
  5 18  1  0
  5 19  1  0
  6 20  1  0
  6 21  1  0
  9 22  1  0
M  END
$$$$
