
     RDKit          3D

 29 30  0  0  0  0  0  0  0  0999 V2000
   -4.1333   -0.2874    0.4105 C   0  0  0  0  0  0  0  0  0  0  0  0
   -2.8129   -0.2998   -0.2178 N   0  0  0  0  0  0  0  0  0  0  0  0
   -2.2188    0.9782   -0.1715 C   0  0  0  0  0  0  0  0  0  0  0  0
   -0.7622    1.0868   -0.3068 C   0  0  0  0  0  0  0  0  0  0  0  0
   -0.0178   -0.1179   -0.0470 N   0  0  0  0  0  0  0  0  0  0  0  0
   -0.6171   -1.2671    0.1999 C   0  0  0  0  0  0  0  0  0  0  0  0
    0.3492   -2.1804    0.3969 N   0  0  0  0  0  0  0  0  0  0  0  0
    1.5388   -1.6057    0.2740 N   0  0  0  0  0  0  0  0  0  0  0  0
    1.2958   -0.3125   -0.0044 C   0  0  0  0  0  0  0  0  0  0  0  0
    2.3907    0.6997   -0.2221 C   0  0  1  0  0  0  0  0  0  0  0  0
    2.0461    1.8476    0.4904 O   0  0  0  0  0  0  0  0  0  0  0  0
    3.7024    0.1573    0.3038 C   0  0  0  0  0  0  0  0  0  0  0  0
    4.0535   -1.0348   -0.4419 N   0  0  0  0  0  0  0  0  0  0  0  0
   -2.0702   -1.4118    0.2298 C   0  0  0  0  0  0  0  0  0  0  0  0
   -4.9227    0.0277   -0.2713 H   0  0  0  0  0  0  0  0  0  0  0  0
   -4.3621   -1.3110    0.7868 H   0  0  0  0  0  0  0  0  0  0  0  0
   -4.0463    0.3627    1.3107 H   0  0  0  0  0  0  0  0  0  0  0  0
   -2.5752    1.4853    0.7706 H   0  0  0  0  0  0  0  0  0  0  0  0
   -2.6980    1.5934   -0.9919 H   0  0  0  0  0  0  0  0  0  0  0  0
   -0.3568    1.8633    0.4078 H   0  0  0  0  0  0  0  0  0  0  0  0
   -0.4275    1.4528   -1.3152 H   0  0  0  0  0  0  0  0  0  0  0  0
    2.4885    0.9575   -1.2756 H   0  0  0  0  0  0  0  0  0  0  0  0
    1.8683    2.6237   -0.0847 H   0  0  0  0  0  0  0  0  0  0  0  0
    3.6064   -0.1576    1.3672 H   0  0  0  0  0  0  0  0  0  0  0  0
    4.4962    0.9145    0.2540 H   0  0  0  0  0  0  0  0  0  0  0  0
    5.0744   -1.2013   -0.2803 H   0  0  0  0  0  0  0  0  0  0  0  0
    3.8579   -0.9015   -1.4598 H   0  0  0  0  0  0  0  0  0  0  0  0
   -2.4040   -1.6607    1.2745 H   0  0  0  0  0  0  0  0  0  0  0  0
   -2.3431   -2.3010   -0.3775 H   0  0  0  0  0  0  0  0  0  0  0  0
  1  2  1  0
  2  3  1  0
  3  4  1  0
  4  5  1  0
  5  6  1  0
  6  7  2  0
  7  8  1  0
  8  9  2  0
  9 10  1  0
 10 11  1  0
 10 12  1  0
 12 13  1  0
  6 14  1  0
 14  2  1  0
  9  5  1  0
  1 15  1  0
  1 16  1  0
  1 17  1  0
  3 18  1  0
  3 19  1  0
  4 20  1  0
  4 21  1  0
 10 22  1  6
 11 23  1  0
 12 24  1  0
 12 25  1  0
 13 26  1  0
 13 27  1  0
 14 28  1  0
 14 29  1  0
M  END
$$$$

     RDKit          3D

 29 30  0  0  0  0  0  0  0  0999 V2000
   -4.0071   -0.3630    0.3250 C   0  0  0  0  0  0  0  0  0  0  0  0
   -2.6240   -0.0505    0.5960 N   0  0  0  0  0  0  0  0  0  0  0  0
   -1.7551   -1.1736    0.5234 C   0  0  0  0  0  0  0  0  0  0  0  0
   -0.4756   -0.9142   -0.2410 C   0  0  0  0  0  0  0  0  0  0  0  0
    0.0859    0.3240    0.2676 N   0  0  0  0  0  0  0  0  0  0  0  0
   -0.7544    1.3691    0.3706 C   0  0  0  0  0  0  0  0  0  0  0  0
   -0.0987    2.4384    0.8522 N   0  0  0  0  0  0  0  0  0  0  0  0
    1.1447    2.0463    1.0438 N   0  0  0  0  0  0  0  0  0  0  0  0
    1.2739    0.7536    0.6905 C   0  0  0  0  0  0  0  0  0  0  0  0
    2.4911   -0.0910    0.7408 C   0  0  1  0  0  0  0  0  0  0  0  0
    2.2206   -1.3568    1.2868 O   0  0  0  0  0  0  0  0  0  0  0  0
    3.1509   -0.2126   -0.6137 C   0  0  0  0  0  0  0  0  0  0  0  0
    3.4005    1.1084   -1.1164 N   0  0  0  0  0  0  0  0  0  0  0  0
   -2.1646    1.1318   -0.0501 C   0  0  0  0  0  0  0  0  0  0  0  0
   -4.2235   -0.4293   -0.7607 H   0  0  0  0  0  0  0  0  0  0  0  0
   -4.6298    0.4148    0.7986 H   0  0  0  0  0  0  0  0  0  0  0  0
   -4.2318   -1.3167    0.8455 H   0  0  0  0  0  0  0  0  0  0  0  0
   -1.4418   -1.4498    1.5709 H   0  0  0  0  0  0  0  0  0  0  0  0
   -2.2367   -2.0911    0.1208 H   0  0  0  0  0  0  0  0  0  0  0  0
    0.1980   -1.7821   -0.0186 H   0  0  0  0  0  0  0  0  0  0  0  0
   -0.6822   -0.8392   -1.3288 H   0  0  0  0  0  0  0  0  0  0  0  0
    3.2362    0.3816    1.4164 H   0  0  0  0  0  0  0  0  0  0  0  0
    2.5008   -2.0907    0.6860 H   0  0  0  0  0  0  0  0  0  0  0  0
    4.1427   -0.7028   -0.4475 H   0  0  0  0  0  0  0  0  0  0  0  0
    2.5874   -0.8570   -1.3099 H   0  0  0  0  0  0  0  0  0  0  0  0
    3.9992    1.0226   -1.9814 H   0  0  0  0  0  0  0  0  0  0  0  0
    3.9495    1.6210   -0.3983 H   0  0  0  0  0  0  0  0  0  0  0  0
   -2.2761    1.1202   -1.1516 H   0  0  0  0  0  0  0  0  0  0  0  0
   -2.7799    1.9888    0.3201 H   0  0  0  0  0  0  0  0  0  0  0  0
  1  2  1  0
  2  3  1  0
  3  4  1  0
  4  5  1  0
  5  6  1  0
  6  7  2  0
  7  8  1  0
  8  9  2  0
  9 10  1  0
 10 11  1  0
 10 12  1  0
 12 13  1  0
  6 14  1  0
 14  2  1  0
  9  5  1  0
  1 15  1  0
  1 16  1  0
  1 17  1  0
  3 18  1  0
  3 19  1  0
  4 20  1  0
  4 21  1  0
 10 22  1  1
 11 23  1  0
 12 24  1  0
 12 25  1  0
 13 26  1  0
 13 27  1  0
 14 28  1  0
 14 29  1  0
M  END
$$$$

     RDKit          3D

 29 30  0  0  0  0  0  0  0  0999 V2000
    3.9925   -0.0349   -0.2523 C   0  0  0  0  0  0  0  0  0  0  0  0
    2.7790    0.1684    0.5132 N   0  0  0  0  0  0  0  0  0  0  0  0
    2.0196   -1.0324    0.6809 C   0  0  0  0  0  0  0  0  0  0  0  0
    0.7575   -1.0842   -0.1395 C   0  0  0  0  0  0  0  0  0  0  0  0
   -0.0215    0.0808    0.1938 N   0  0  0  0  0  0  0  0  0  0  0  0
    0.6130    1.2624    0.2373 C   0  0  0  0  0  0  0  0  0  0  0  0
   -0.2803    2.1886    0.5592 N   0  0  0  0  0  0  0  0  0  0  0  0
   -1.4323    1.6039    0.7110 N   0  0  0  0  0  0  0  0  0  0  0  0
   -1.3082    0.2852    0.4902 C   0  0  0  0  0  0  0  0  0  0  0  0
   -2.4051   -0.7156    0.5691 C   0  0  1  0  0  0  0  0  0  0  0  0
   -3.1172   -0.4216    1.7462 O   0  0  0  0  0  0  0  0  0  0  0  0
   -3.3305   -0.4843   -0.6298 C   0  0  0  0  0  0  0  0  0  0  0  0
   -3.7182    0.9072   -0.5793 N   0  0  0  0  0  0  0  0  0  0  0  0
    2.0638    1.2707   -0.0619 C   0  0  0  0  0  0  0  0  0  0  0  0
    4.5363    0.9452   -0.2318 H   0  0  0  0  0  0  0  0  0  0  0  0
    3.7161   -0.3543   -1.2570 H   0  0  0  0  0  0  0  0  0  0  0  0
    4.6052   -0.8310    0.2421 H   0  0  0  0  0  0  0  0  0  0  0  0
    2.6745   -1.9170    0.5182 H   0  0  0  0  0  0  0  0  0  0  0  0
    1.7054   -1.1006    1.7593 H   0  0  0  0  0  0  0  0  0  0  0  0
    0.2431   -2.0287    0.0696 H   0  0  0  0  0  0  0  0  0  0  0  0
    1.0480   -1.0399   -1.2291 H   0  0  0  0  0  0  0  0  0  0  0  0
   -2.0273   -1.7398    0.5598 H   0  0  0  0  0  0  0  0  0  0  0  0
   -2.4786   -0.1275    2.4463 H   0  0  0  0  0  0  0  0  0  0  0  0
   -2.7576   -0.6657   -1.5559 H   0  0  0  0  0  0  0  0  0  0  0  0
   -4.2237   -1.1245   -0.5880 H   0  0  0  0  0  0  0  0  0  0  0  0
   -4.3663    1.1342    0.1765 H   0  0  0  0  0  0  0  0  0  0  0  0
   -3.9110    1.3231   -1.4910 H   0  0  0  0  0  0  0  0  0  0  0  0
    2.4727    2.2423    0.2819 H   0  0  0  0  0  0  0  0  0  0  0  0
    2.1508    1.2899   -1.1857 H   0  0  0  0  0  0  0  0  0  0  0  0
  1  2  1  0
  2  3  1  0
  3  4  1  0
  4  5  1  0
  5  6  1  0
  6  7  2  0
  7  8  1  0
  8  9  2  0
  9 10  1  0
 10 11  1  0
 10 12  1  0
 12 13  1  0
  6 14  1  0
 14  2  1  0
  9  5  1  0
  1 15  1  0
  1 16  1  0
  1 17  1  0
  3 18  1  0
  3 19  1  0
  4 20  1  0
  4 21  1  0
 10 22  1  1
 11 23  1  0
 12 24  1  0
 12 25  1  0
 13 26  1  0
 13 27  1  0
 14 28  1  0
 14 29  1  0
M  END
$$$$

     RDKit          3D

 29 30  0  0  0  0  0  0  0  0999 V2000
    2.8960    0.5257   -1.2095 C   0  0  0  0  0  0  0  0  0  0  0  0
    2.8134   -0.4771   -0.1951 N   0  0  0  0  0  0  0  0  0  0  0  0
    1.9337   -1.5548   -0.4694 C   0  0  0  0  0  0  0  0  0  0  0  0
    0.5759   -1.4427    0.1607 C   0  0  0  0  0  0  0  0  0  0  0  0
    0.3155   -0.1257    0.7044 N   0  0  0  0  0  0  0  0  0  0  0  0
    1.2877    0.6752    1.1718 C   0  0  0  0  0  0  0  0  0  0  0  0
    0.7156    1.7892    1.5891 N   0  0  0  0  0  0  0  0  0  0  0  0
   -0.5858    1.6786    1.3834 N   0  0  0  0  0  0  0  0  0  0  0  0
   -0.8680    0.4848    0.8279 C   0  0  0  0  0  0  0  0  0  0  0  0
   -2.2323    0.0129    0.4567 C   0  0  1  0  0  0  0  0  0  0  0  0
   -3.1324    0.3010    1.5090 O   0  0  0  0  0  0  0  0  0  0  0  0
   -2.7572    0.6891   -0.7799 C   0  0  0  0  0  0  0  0  0  0  0  0
   -4.0661    0.1609   -1.0570 N   0  0  0  0  0  0  0  0  0  0  0  0
    2.6749    0.1164    1.0955 C   0  0  0  0  0  0  0  0  0  0  0  0
    1.9083    0.9957   -1.4540 H   0  0  0  0  0  0  0  0  0  0  0  0
    3.4293    0.1903   -2.1324 H   0  0  0  0  0  0  0  0  0  0  0  0
    3.5215    1.3625   -0.7954 H   0  0  0  0  0  0  0  0  0  0  0  0
    2.4293   -2.4996   -0.1000 H   0  0  0  0  0  0  0  0  0  0  0  0
    1.8669   -1.6858   -1.5705 H   0  0  0  0  0  0  0  0  0  0  0  0
   -0.1749   -1.7272   -0.6123 H   0  0  0  0  0  0  0  0  0  0  0  0
    0.4679   -2.1726    0.9863 H   0  0  0  0  0  0  0  0  0  0  0  0
   -2.2786   -1.0688    0.3100 H   0  0  0  0  0  0  0  0  0  0  0  0
   -2.9606    1.2699    1.7264 H   0  0  0  0  0  0  0  0  0  0  0  0
   -2.8380    1.7883   -0.6660 H   0  0  0  0  0  0  0  0  0  0  0  0
   -2.0944    0.4638   -1.6396 H   0  0  0  0  0  0  0  0  0  0  0  0
   -4.8313    0.8307   -0.9286 H   0  0  0  0  0  0  0  0  0  0  0  0
   -4.2283   -0.7760   -0.6260 H   0  0  0  0  0  0  0  0  0  0  0  0
    2.7692   -0.6989    1.8585 H   0  0  0  0  0  0  0  0  0  0  0  0
    3.4427    0.8943    1.2170 H   0  0  0  0  0  0  0  0  0  0  0  0
  1  2  1  0
  2  3  1  0
  3  4  1  0
  4  5  1  0
  5  6  1  0
  6  7  2  0
  7  8  1  0
  8  9  2  0
  9 10  1  0
 10 11  1  0
 10 12  1  0
 12 13  1  0
  6 14  1  0
 14  2  1  0
  9  5  1  0
  1 15  1  0
  1 16  1  0
  1 17  1  0
  3 18  1  0
  3 19  1  0
  4 20  1  0
  4 21  1  0
 10 22  1  6
 11 23  1  0
 12 24  1  0
 12 25  1  0
 13 26  1  0
 13 27  1  0
 14 28  1  0
 14 29  1  0
M  END
$$$$

     RDKit          3D

 29 30  0  0  0  0  0  0  0  0999 V2000
   -4.1481    0.2939    0.0805 C   0  0  0  0  0  0  0  0  0  0  0  0
   -2.7318    0.3053    0.0472 N   0  0  0  0  0  0  0  0  0  0  0  0
   -2.0827   -0.9215    0.3211 C   0  0  0  0  0  0  0  0  0  0  0  0
   -0.8407   -1.1255   -0.5537 C   0  0  0  0  0  0  0  0  0  0  0  0
   -0.0387    0.0822   -0.4189 N   0  0  0  0  0  0  0  0  0  0  0  0
   -0.6827    1.2492   -0.6186 C   0  0  0  0  0  0  0  0  0  0  0  0
    0.1781    2.2717   -0.4622 N   0  0  0  0  0  0  0  0  0  0  0  0
    1.3452    1.7128   -0.1669 N   0  0  0  0  0  0  0  0  0  0  0  0
    1.2294    0.3787   -0.1367 C   0  0  0  0  0  0  0  0  0  0  0  0
    2.2702   -0.6474    0.1492 C   0  0  1  0  0  0  0  0  0  0  0  0
    2.2004   -1.6971   -0.7712 O   0  0  0  0  0  0  0  0  0  0  0  0
    3.6531   -0.0388    0.1798 C   0  0  0  0  0  0  0  0  0  0  0  0
    4.0261    0.4851   -1.1003 N   0  0  0  0  0  0  0  0  0  0  0  0
   -2.1348    1.1252   -0.9509 C   0  0  0  0  0  0  0  0  0  0  0  0
   -4.4769   -0.0660    1.0778 H   0  0  0  0  0  0  0  0  0  0  0  0
   -4.6306   -0.3094   -0.7016 H   0  0  0  0  0  0  0  0  0  0  0  0
   -4.5001    1.3622    0.0297 H   0  0  0  0  0  0  0  0  0  0  0  0
   -2.7232   -1.8197    0.2870 H   0  0  0  0  0  0  0  0  0  0  0  0
   -1.6754   -0.8659    1.3733 H   0  0  0  0  0  0  0  0  0  0  0  0
   -0.3046   -2.0271   -0.2635 H   0  0  0  0  0  0  0  0  0  0  0  0
   -1.1948   -1.2201   -1.6048 H   0  0  0  0  0  0  0  0  0  0  0  0
    2.0282   -1.0738    1.1412 H   0  0  0  0  0  0  0  0  0  0  0  0
    3.1132   -1.9642   -1.0288 H   0  0  0  0  0  0  0  0  0  0  0  0
    3.6394    0.7747    0.9325 H   0  0  0  0  0  0  0  0  0  0  0  0
    4.3563   -0.8060    0.5259 H   0  0  0  0  0  0  0  0  0  0  0  0
    3.9316    1.5206   -1.1143 H   0  0  0  0  0  0  0  0  0  0  0  0
    5.0356    0.2594   -1.3263 H   0  0  0  0  0  0  0  0  0  0  0  0
   -2.2149    0.6607   -1.9628 H   0  0  0  0  0  0  0  0  0  0  0  0
   -2.6268    2.1007   -0.9831 H   0  0  0  0  0  0  0  0  0  0  0  0
  1  2  1  0
  2  3  1  0
  3  4  1  0
  4  5  1  0
  5  6  1  0
  6  7  2  0
  7  8  1  0
  8  9  2  0
  9 10  1  0
 10 11  1  0
 10 12  1  0
 12 13  1  0
  6 14  1  0
 14  2  1  0
  9  5  1  0
  1 15  1  0
  1 16  1  0
  1 17  1  0
  3 18  1  0
  3 19  1  0
  4 20  1  0
  4 21  1  0
 10 22  1  1
 11 23  1  0
 12 24  1  0
 12 25  1  0
 13 26  1  0
 13 27  1  0
 14 28  1  0
 14 29  1  0
M  END
$$$$

     RDKit          3D

 29 30  0  0  0  0  0  0  0  0999 V2000
    3.6066    0.6477   -0.5172 C   0  0  0  0  0  0  0  0  0  0  0  0
    2.7554   -0.4526   -0.2624 N   0  0  0  0  0  0  0  0  0  0  0  0
    2.1943   -0.5802    1.0097 C   0  0  0  0  0  0  0  0  0  0  0  0
    0.7029   -0.5107    1.0349 C   0  0  0  0  0  0  0  0  0  0  0  0
    0.0953   -0.1632   -0.2268 N   0  0  0  0  0  0  0  0  0  0  0  0
    0.6996   -0.3709   -1.4226 C   0  0  0  0  0  0  0  0  0  0  0  0
   -0.1358    0.0614   -2.3623 N   0  0  0  0  0  0  0  0  0  0  0  0
   -1.2510    0.5366   -1.7942 N   0  0  0  0  0  0  0  0  0  0  0  0
   -1.1108    0.3984   -0.4644 C   0  0  0  0  0  0  0  0  0  0  0  0
   -2.1238    0.8024    0.5437 C   0  0  1  0  0  0  0  0  0  0  0  0
   -2.6375    2.0640    0.2536 O   0  0  0  0  0  0  0  0  0  0  0  0
   -3.2735   -0.1907    0.5639 C   0  0  0  0  0  0  0  0  0  0  0  0
   -3.9090   -0.2127   -0.6883 N   0  0  0  0  0  0  0  0  0  0  0  0
    2.0463   -0.9853   -1.3677 C   0  0  0  0  0  0  0  0  0  0  0  0
    4.4962    0.2896   -1.0770 H   0  0  0  0  0  0  0  0  0  0  0  0
    3.1331    1.4336   -1.1542 H   0  0  0  0  0  0  0  0  0  0  0  0
    3.9095    1.0975    0.4529 H   0  0  0  0  0  0  0  0  0  0  0  0
    2.4746   -1.5931    1.4271 H   0  0  0  0  0  0  0  0  0  0  0  0
    2.6614    0.1731    1.6958 H   0  0  0  0  0  0  0  0  0  0  0  0
    0.2226   -1.4646    1.3640 H   0  0  0  0  0  0  0  0  0  0  0  0
    0.4102    0.2432    1.7972 H   0  0  0  0  0  0  0  0  0  0  0  0
   -1.6895    0.8543    1.5625 H   0  0  0  0  0  0  0  0  0  0  0  0
   -2.4739    2.2832   -0.7094 H   0  0  0  0  0  0  0  0  0  0  0  0
   -3.9829    0.1279    1.3461 H   0  0  0  0  0  0  0  0  0  0  0  0
   -2.8864   -1.2105    0.7977 H   0  0  0  0  0  0  0  0  0  0  0  0
   -4.4174   -1.0404   -0.9689 H   0  0  0  0  0  0  0  0  0  0  0  0
   -4.0554    0.6522   -1.1833 H   0  0  0  0  0  0  0  0  0  0  0  0
    1.9087   -2.0815   -1.1981 H   0  0  0  0  0  0  0  0  0  0  0  0
    2.6304   -0.8085   -2.2885 H   0  0  0  0  0  0  0  0  0  0  0  0
  1  2  1  0
  2  3  1  0
  3  4  1  0
  4  5  1  0
  5  6  1  0
  6  7  2  0
  7  8  1  0
  8  9  2  0
  9 10  1  0
 10 11  1  0
 10 12  1  0
 12 13  1  0
  6 14  1  0
 14  2  1  0
  9  5  1  0
  1 15  1  0
  1 16  1  0
  1 17  1  0
  3 18  1  0
  3 19  1  0
  4 20  1  0
  4 21  1  0
 10 22  1  1
 11 23  1  0
 12 24  1  0
 12 25  1  0
 13 26  1  0
 13 27  1  0
 14 28  1  0
 14 29  1  0
M  END
$$$$

     RDKit          3D

 29 30  0  0  0  0  0  0  0  0999 V2000
    3.6422    0.4507    0.7313 C   0  0  0  0  0  0  0  0  0  0  0  0
    2.8457   -0.1353   -0.2970 N   0  0  0  0  0  0  0  0  0  0  0  0
    2.1084   -1.2820    0.0576 C   0  0  0  0  0  0  0  0  0  0  0  0
    0.7057   -1.3455   -0.4881 C   0  0  0  0  0  0  0  0  0  0  0  0
    0.0720   -0.0438   -0.5136 N   0  0  0  0  0  0  0  0  0  0  0  0
    0.8359    1.0084   -0.8701 C   0  0  0  0  0  0  0  0  0  0  0  0
    0.0137    2.0823   -0.8123 N   0  0  0  0  0  0  0  0  0  0  0  0
   -1.1938    1.7020   -0.4384 N   0  0  0  0  0  0  0  0  0  0  0  0
   -1.1802    0.3688   -0.2451 C   0  0  0  0  0  0  0  0  0  0  0  0
   -2.2910   -0.5065    0.1765 C   0  0  1  0  0  0  0  0  0  0  0  0
   -1.9537   -1.4168    1.1468 O   0  0  0  0  0  0  0  0  0  0  0  0
   -3.4119    0.3847    0.6716 C   0  0  0  0  0  0  0  0  0  0  0  0
   -3.7836    1.3556   -0.3417 N   0  0  0  0  0  0  0  0  0  0  0  0
    2.2415    0.7677   -1.2043 C   0  0  0  0  0  0  0  0  0  0  0  0
    3.4907    1.5480    0.7750 H   0  0  0  0  0  0  0  0  0  0  0  0
    4.7112    0.2045    0.5090 H   0  0  0  0  0  0  0  0  0  0  0  0
    3.3338    0.0371    1.7156 H   0  0  0  0  0  0  0  0  0  0  0  0
    2.6465   -2.1971   -0.2656 H   0  0  0  0  0  0  0  0  0  0  0  0
    2.0681   -1.3492    1.1797 H   0  0  0  0  0  0  0  0  0  0  0  0
    0.1405   -2.0462    0.1757 H   0  0  0  0  0  0  0  0  0  0  0  0
    0.7326   -1.8266   -1.4875 H   0  0  0  0  0  0  0  0  0  0  0  0
   -2.7131   -1.0897   -0.6887 H   0  0  0  0  0  0  0  0  0  0  0  0
   -2.6497   -2.1337    1.1389 H   0  0  0  0  0  0  0  0  0  0  0  0
   -4.3020   -0.1761    0.9727 H   0  0  0  0  0  0  0  0  0  0  0  0
   -3.0596    0.9642    1.5563 H   0  0  0  0  0  0  0  0  0  0  0  0
   -4.8327    1.3727   -0.4606 H   0  0  0  0  0  0  0  0  0  0  0  0
   -3.3596    1.0596   -1.2494 H   0  0  0  0  0  0  0  0  0  0  0  0
    2.3665    0.4851   -2.2786 H   0  0  0  0  0  0  0  0  0  0  0  0
    2.7762    1.7572   -1.1134 H   0  0  0  0  0  0  0  0  0  0  0  0
  1  2  1  0
  2  3  1  0
  3  4  1  0
  4  5  1  0
  5  6  1  0
  6  7  2  0
  7  8  1  0
  8  9  2  0
  9 10  1  0
 10 11  1  0
 10 12  1  0
 12 13  1  0
  6 14  1  0
 14  2  1  0
  9  5  1  0
  1 15  1  0
  1 16  1  0
  1 17  1  0
  3 18  1  0
  3 19  1  0
  4 20  1  0
  4 21  1  0
 10 22  1  6
 11 23  1  0
 12 24  1  0
 12 25  1  0
 13 26  1  0
 13 27  1  0
 14 28  1  0
 14 29  1  0
M  END
$$$$

     RDKit          3D

 29 30  0  0  0  0  0  0  0  0999 V2000
    4.2223    0.1464   -0.2154 C   0  0  0  0  0  0  0  0  0  0  0  0
    2.8966   -0.3307    0.1067 N   0  0  0  0  0  0  0  0  0  0  0  0
    2.1839    0.7236    0.7745 C   0  0  0  0  0  0  0  0  0  0  0  0
    0.7679    0.4009    1.0937 C   0  0  0  0  0  0  0  0  0  0  0  0
    0.0887   -0.3410    0.0794 N   0  0  0  0  0  0  0  0  0  0  0  0
    0.7655   -0.9180   -0.9008 C   0  0  0  0  0  0  0  0  0  0  0  0
   -0.1407   -1.5290   -1.6809 N   0  0  0  0  0  0  0  0  0  0  0  0
   -1.3574   -1.3277   -1.1833 N   0  0  0  0  0  0  0  0  0  0  0  0
   -1.2278   -0.5804   -0.0736 C   0  0  0  0  0  0  0  0  0  0  0  0
   -2.3113   -0.0957    0.8317 C   0  0  1  0  0  0  0  0  0  0  0  0
   -2.1113    1.2392    1.1455 O   0  0  0  0  0  0  0  0  0  0  0  0
   -3.6159   -0.2412    0.0794 C   0  0  0  0  0  0  0  0  0  0  0  0
   -4.6994    0.2295    0.9052 N   0  0  0  0  0  0  0  0  0  0  0  0
    2.2295   -0.8596   -1.0448 C   0  0  0  0  0  0  0  0  0  0  0  0
    4.8109    0.3442    0.6855 H   0  0  0  0  0  0  0  0  0  0  0  0
    4.2163    1.0121   -0.9108 H   0  0  0  0  0  0  0  0  0  0  0  0
    4.7711   -0.6663   -0.7706 H   0  0  0  0  0  0  0  0  0  0  0  0
    2.7187    0.8907    1.7549 H   0  0  0  0  0  0  0  0  0  0  0  0
    2.2747    1.7050    0.2391 H   0  0  0  0  0  0  0  0  0  0  0  0
    0.6444   -0.1341    2.0742 H   0  0  0  0  0  0  0  0  0  0  0  0
    0.2209    1.3737    1.2334 H   0  0  0  0  0  0  0  0  0  0  0  0
   -2.3795   -0.7355    1.7380 H   0  0  0  0  0  0  0  0  0  0  0  0
   -2.3752    1.7697    0.3524 H   0  0  0  0  0  0  0  0  0  0  0  0
   -3.7978   -1.3096   -0.1452 H   0  0  0  0  0  0  0  0  0  0  0  0
   -3.5473    0.3456   -0.8582 H   0  0  0  0  0  0  0  0  0  0  0  0
   -4.7690    1.2631    0.9582 H   0  0  0  0  0  0  0  0  0  0  0  0
   -5.5866   -0.1600    0.5532 H   0  0  0  0  0  0  0  0  0  0  0  0
    2.6443   -1.8997   -1.2011 H   0  0  0  0  0  0  0  0  0  0  0  0
    2.4635   -0.3154   -1.9868 H   0  0  0  0  0  0  0  0  0  0  0  0
  1  2  1  0
  2  3  1  0
  3  4  1  0
  4  5  1  0
  5  6  1  0
  6  7  2  0
  7  8  1  0
  8  9  2  0
  9 10  1  0
 10 11  1  0
 10 12  1  0
 12 13  1  0
  6 14  1  0
 14  2  1  0
  9  5  1  0
  1 15  1  0
  1 16  1  0
  1 17  1  0
  3 18  1  0
  3 19  1  0
  4 20  1  0
  4 21  1  0
 10 22  1  1
 11 23  1  0
 12 24  1  0
 12 25  1  0
 13 26  1  0
 13 27  1  0
 14 28  1  0
 14 29  1  0
M  END
$$$$
