
     RDKit          3D

 26 26  0  0  0  0  0  0  0  0999 V2000
   -3.2703    0.7260   -0.4506 N   0  0  0  0  0  0  0  0  0  0  0  0
   -2.3003   -0.3346   -0.3662 C   0  0  2  0  0  0  0  0  0  0  0  0
   -1.9751   -0.7026    1.0675 C   0  0  0  0  0  0  0  0  0  0  0  0
   -0.6349   -1.4190    0.8407 C   0  0  0  0  0  0  0  0  0  0  0  0
    0.0449   -0.4503    0.0088 N   0  0  0  0  0  0  0  0  0  0  0  0
    1.4264   -0.1246    0.1037 C   0  0  0  0  0  0  0  0  0  0  0  0
    2.1066   -0.5114   -1.1995 C   0  0  0  0  0  0  0  0  0  0  0  0
    3.4645   -0.2057   -1.1419 O   0  0  0  0  0  0  0  0  0  0  0  0
    1.6906    1.3327    0.3997 C   0  0  0  0  0  0  0  0  0  0  0  0
    1.1061    1.6630    1.6005 O   0  0  0  0  0  0  0  0  0  0  0  0
   -0.9645    0.0613   -0.8751 C   0  0  0  0  0  0  0  0  0  0  0  0
   -0.7124    0.7336   -1.9060 O   0  0  0  0  0  0  0  0  0  0  0  0
   -3.2058    1.1264   -1.4117 H   0  0  0  0  0  0  0  0  0  0  0  0
   -3.0159    1.4571    0.2368 H   0  0  0  0  0  0  0  0  0  0  0  0
   -2.6932   -1.2441   -0.8571 H   0  0  0  0  0  0  0  0  0  0  0  0
   -1.8443    0.1943    1.7083 H   0  0  0  0  0  0  0  0  0  0  0  0
   -2.6949   -1.4211    1.5001 H   0  0  0  0  0  0  0  0  0  0  0  0
   -0.8498   -2.3051    0.2459 H   0  0  0  0  0  0  0  0  0  0  0  0
   -0.1189   -1.6076    1.7917 H   0  0  0  0  0  0  0  0  0  0  0  0
    1.9009   -0.7167    0.9012 H   0  0  0  0  0  0  0  0  0  0  0  0
    2.0207   -1.6057   -1.3550 H   0  0  0  0  0  0  0  0  0  0  0  0
    1.6541    0.0451   -2.0631 H   0  0  0  0  0  0  0  0  0  0  0  0
    3.9008   -0.7935   -0.4715 H   0  0  0  0  0  0  0  0  0  0  0  0
    1.3069    2.0012   -0.3975 H   0  0  0  0  0  0  0  0  0  0  0  0
    2.7925    1.4623    0.4470 H   0  0  0  0  0  0  0  0  0  0  0  0
    0.8654    2.6390    1.6431 H   0  0  0  0  0  0  0  0  0  0  0  0
  1  2  1  0
  2  3  1  0
  3  4  1  0
  4  5  1  0
  5  6  1  0
  6  7  1  0
  7  8  1  0
  6  9  1  0
  9 10  1  0
  5 11  1  0
 11 12  2  0
 11  2  1  0
  1 13  1  0
  1 14  1  0
  2 15  1  6
  3 16  1  0
  3 17  1  0
  4 18  1  0
  4 19  1  0
  6 20  1  0
  7 21  1  0
  7 22  1  0
  8 23  1  0
  9 24  1  0
  9 25  1  0
 10 26  1  0
M  END
$$$$

     RDKit          3D

 26 26  0  0  0  0  0  0  0  0999 V2000
    3.5868   -0.3544   -0.7405 N   0  0  0  0  0  0  0  0  0  0  0  0
    2.3960    0.2866   -0.2482 C   0  0  2  0  0  0  0  0  0  0  0  0
    2.0497   -0.1377    1.1625 C   0  0  0  0  0  0  0  0  0  0  0  0
    0.5925    0.3276    1.2411 C   0  0  0  0  0  0  0  0  0  0  0  0
    0.0844    0.0356   -0.0851 N   0  0  0  0  0  0  0  0  0  0  0  0
   -1.2992   -0.0611   -0.4292 C   0  0  0  0  0  0  0  0  0  0  0  0
   -2.0039    1.2631   -0.1983 C   0  0  0  0  0  0  0  0  0  0  0  0
   -3.3482    1.1625   -0.5346 O   0  0  0  0  0  0  0  0  0  0  0  0
   -2.0569   -1.1230    0.3086 C   0  0  0  0  0  0  0  0  0  0  0  0
   -2.0827   -0.9901    1.6707 O   0  0  0  0  0  0  0  0  0  0  0  0
    1.1751   -0.1351   -0.9820 C   0  0  0  0  0  0  0  0  0  0  0  0
    1.0387   -0.5662   -2.1529 O   0  0  0  0  0  0  0  0  0  0  0  0
    4.0651    0.2908   -1.4089 H   0  0  0  0  0  0  0  0  0  0  0  0
    3.2736   -1.1858   -1.3086 H   0  0  0  0  0  0  0  0  0  0  0  0
    2.4493    1.3843   -0.2514 H   0  0  0  0  0  0  0  0  0  0  0  0
    2.6771    0.3182    1.9261 H   0  0  0  0  0  0  0  0  0  0  0  0
    2.0052   -1.2510    1.2350 H   0  0  0  0  0  0  0  0  0  0  0  0
    0.6655    1.4449    1.3824 H   0  0  0  0  0  0  0  0  0  0  0  0
    0.0565   -0.1560    2.0553 H   0  0  0  0  0  0  0  0  0  0  0  0
   -1.4467   -0.2935   -1.5256 H   0  0  0  0  0  0  0  0  0  0  0  0
   -1.5515    1.9782   -0.9366 H   0  0  0  0  0  0  0  0  0  0  0  0
   -1.8486    1.6484    0.8229 H   0  0  0  0  0  0  0  0  0  0  0  0
   -3.5395    1.2885   -1.4807 H   0  0  0  0  0  0  0  0  0  0  0  0
   -3.1050   -1.1429   -0.0532 H   0  0  0  0  0  0  0  0  0  0  0  0
   -1.6490   -2.1446    0.0563 H   0  0  0  0  0  0  0  0  0  0  0  0
   -2.1841   -1.8870    2.0683 H   0  0  0  0  0  0  0  0  0  0  0  0
  1  2  1  0
  2  3  1  0
  3  4  1  0
  4  5  1  0
  5  6  1  0
  6  7  1  0
  7  8  1  0
  6  9  1  0
  9 10  1  0
  5 11  1  0
 11 12  2  0
 11  2  1  0
  1 13  1  0
  1 14  1  0
  2 15  1  1
  3 16  1  0
  3 17  1  0
  4 18  1  0
  4 19  1  0
  6 20  1  0
  7 21  1  0
  7 22  1  0
  8 23  1  0
  9 24  1  0
  9 25  1  0
 10 26  1  0
M  END
$$$$

     RDKit          3D

 26 26  0  0  0  0  0  0  0  0999 V2000
    3.0062    1.2680   -0.6244 N   0  0  0  0  0  0  0  0  0  0  0  0
    2.3060    0.4031    0.2914 C   0  0  2  0  0  0  0  0  0  0  0  0
    2.0176   -0.9202   -0.3910 C   0  0  0  0  0  0  0  0  0  0  0  0
    0.6938   -1.3218    0.2727 C   0  0  0  0  0  0  0  0  0  0  0  0
   -0.0346   -0.0949    0.2463 N   0  0  0  0  0  0  0  0  0  0  0  0
   -1.4393    0.1782    0.0222 C   0  0  0  0  0  0  0  0  0  0  0  0
   -2.2526   -0.4821    1.1302 C   0  0  0  0  0  0  0  0  0  0  0  0
   -1.9101   -0.0091    2.3770 O   0  0  0  0  0  0  0  0  0  0  0  0
   -1.9216   -0.3085   -1.3152 C   0  0  0  0  0  0  0  0  0  0  0  0
   -1.2007    0.3199   -2.3266 O   0  0  0  0  0  0  0  0  0  0  0  0
    0.9336    0.9325    0.5013 C   0  0  0  0  0  0  0  0  0  0  0  0
    0.6971    2.1130    0.8510 O   0  0  0  0  0  0  0  0  0  0  0  0
    2.4098    2.0521   -0.9608 H   0  0  0  0  0  0  0  0  0  0  0  0
    3.7884    1.7151   -0.0690 H   0  0  0  0  0  0  0  0  0  0  0  0
    2.8492    0.2597    1.2510 H   0  0  0  0  0  0  0  0  0  0  0  0
    2.8176   -1.6338   -0.1847 H   0  0  0  0  0  0  0  0  0  0  0  0
    1.8594   -0.7863   -1.4662 H   0  0  0  0  0  0  0  0  0  0  0  0
    0.2172   -2.1641   -0.2291 H   0  0  0  0  0  0  0  0  0  0  0  0
    0.9840   -1.5904    1.3286 H   0  0  0  0  0  0  0  0  0  0  0  0
   -1.6616    1.2630    0.0728 H   0  0  0  0  0  0  0  0  0  0  0  0
   -3.3286   -0.3107    0.9841 H   0  0  0  0  0  0  0  0  0  0  0  0
   -2.0792   -1.5868    1.1416 H   0  0  0  0  0  0  0  0  0  0  0  0
   -2.2119    0.9421    2.4606 H   0  0  0  0  0  0  0  0  0  0  0  0
   -1.9005   -1.4104   -1.4083 H   0  0  0  0  0  0  0  0  0  0  0  0
   -2.9818    0.0020   -1.4118 H   0  0  0  0  0  0  0  0  0  0  0  0
   -1.6575    1.1703   -2.5435 H   0  0  0  0  0  0  0  0  0  0  0  0
  1  2  1  0
  2  3  1  0
  3  4  1  0
  4  5  1  0
  5  6  1  0
  6  7  1  0
  7  8  1  0
  6  9  1  0
  9 10  1  0
  5 11  1  0
 11 12  2  0
 11  2  1  0
  1 13  1  0
  1 14  1  0
  2 15  1  1
  3 16  1  0
  3 17  1  0
  4 18  1  0
  4 19  1  0
  6 20  1  0
  7 21  1  0
  7 22  1  0
  8 23  1  0
  9 24  1  0
  9 25  1  0
 10 26  1  0
M  END
$$$$

     RDKit          3D

 26 26  0  0  0  0  0  0  0  0999 V2000
   -3.4384    0.5771    0.2233 N   0  0  0  0  0  0  0  0  0  0  0  0
   -2.3295    0.0035   -0.4536 C   0  0  2  0  0  0  0  0  0  0  0  0
   -1.7737   -1.2309    0.2701 C   0  0  0  0  0  0  0  0  0  0  0  0
   -0.4473   -1.3121   -0.4662 C   0  0  0  0  0  0  0  0  0  0  0  0
    0.0428    0.0442   -0.2229 N   0  0  0  0  0  0  0  0  0  0  0  0
    1.3404    0.5024    0.1290 C   0  0  0  0  0  0  0  0  0  0  0  0
    1.8787   -0.0670    1.4105 C   0  0  0  0  0  0  0  0  0  0  0  0
    1.1290    0.2036    2.5150 O   0  0  0  0  0  0  0  0  0  0  0  0
    2.2754    0.1866   -1.0283 C   0  0  0  0  0  0  0  0  0  0  0  0
    3.5675    0.6025   -0.7660 O   0  0  0  0  0  0  0  0  0  0  0  0
   -1.1043    0.8692   -0.4192 C   0  0  0  0  0  0  0  0  0  0  0  0
   -1.1727    2.1180   -0.5513 O   0  0  0  0  0  0  0  0  0  0  0  0
   -4.1092   -0.1932    0.4642 H   0  0  0  0  0  0  0  0  0  0  0  0
   -3.9453    1.2011   -0.4367 H   0  0  0  0  0  0  0  0  0  0  0  0
   -2.5341   -0.3145   -1.4986 H   0  0  0  0  0  0  0  0  0  0  0  0
   -2.4024   -2.1107    0.1071 H   0  0  0  0  0  0  0  0  0  0  0  0
   -1.6451   -0.9513    1.3253 H   0  0  0  0  0  0  0  0  0  0  0  0
   -0.6792   -1.4066   -1.5342 H   0  0  0  0  0  0  0  0  0  0  0  0
    0.2186   -2.0798   -0.0621 H   0  0  0  0  0  0  0  0  0  0  0  0
    1.3493    1.6035    0.2337 H   0  0  0  0  0  0  0  0  0  0  0  0
    2.9200    0.2594    1.5877 H   0  0  0  0  0  0  0  0  0  0  0  0
    1.9140   -1.1793    1.2768 H   0  0  0  0  0  0  0  0  0  0  0  0
    0.7889    1.1261    2.5756 H   0  0  0  0  0  0  0  0  0  0  0  0
    1.8458    0.6806   -1.9266 H   0  0  0  0  0  0  0  0  0  0  0  0
    2.1904   -0.9064   -1.2113 H   0  0  0  0  0  0  0  0  0  0  0  0
    4.1205    0.3327   -1.5412 H   0  0  0  0  0  0  0  0  0  0  0  0
  1  2  1  0
  2  3  1  0
  3  4  1  0
  4  5  1  0
  5  6  1  0
  6  7  1  0
  7  8  1  0
  6  9  1  0
  9 10  1  0
  5 11  1  0
 11 12  2  0
 11  2  1  0
  1 13  1  0
  1 14  1  0
  2 15  1  6
  3 16  1  0
  3 17  1  0
  4 18  1  0
  4 19  1  0
  6 20  1  0
  7 21  1  0
  7 22  1  0
  8 23  1  0
  9 24  1  0
  9 25  1  0
 10 26  1  0
M  END
$$$$

     RDKit          3D

 26 26  0  0  0  0  0  0  0  0999 V2000
    2.5998    0.3828    1.3033 N   0  0  0  0  0  0  0  0  0  0  0  0
    2.2005   -0.4573    0.1947 C   0  0  2  0  0  0  0  0  0  0  0  0
    2.1502    0.3417   -1.0712 C   0  0  0  0  0  0  0  0  0  0  0  0
    0.8616    1.1286   -0.8630 C   0  0  0  0  0  0  0  0  0  0  0  0
   -0.0184    0.1329   -0.2417 N   0  0  0  0  0  0  0  0  0  0  0  0
   -1.4554    0.1858   -0.3237 C   0  0  0  0  0  0  0  0  0  0  0  0
   -2.0439   -1.0441   -0.9880 C   0  0  0  0  0  0  0  0  0  0  0  0
   -1.7522   -2.2156   -0.3257 O   0  0  0  0  0  0  0  0  0  0  0  0
   -2.0548    0.3080    1.0719 C   0  0  0  0  0  0  0  0  0  0  0  0
   -1.5605    1.4810    1.6321 O   0  0  0  0  0  0  0  0  0  0  0  0
    0.7870   -0.8353    0.4136 C   0  0  0  0  0  0  0  0  0  0  0  0
    0.4234   -1.8429    1.0701 O   0  0  0  0  0  0  0  0  0  0  0  0
    3.1579    1.1996    1.0277 H   0  0  0  0  0  0  0  0  0  0  0  0
    2.9880   -0.1591    2.1039 H   0  0  0  0  0  0  0  0  0  0  0  0
    2.8407   -1.3527    0.0858 H   0  0  0  0  0  0  0  0  0  0  0  0
    3.0080    1.0112   -1.2154 H   0  0  0  0  0  0  0  0  0  0  0  0
    1.9801   -0.3489   -1.9284 H   0  0  0  0  0  0  0  0  0  0  0  0
    1.0283    1.9991   -0.2307 H   0  0  0  0  0  0  0  0  0  0  0  0
    0.4709    1.4395   -1.8536 H   0  0  0  0  0  0  0  0  0  0  0  0
   -1.7526    1.0765   -0.9009 H   0  0  0  0  0  0  0  0  0  0  0  0
   -3.1580   -0.8870   -0.9755 H   0  0  0  0  0  0  0  0  0  0  0  0
   -1.7509   -1.0978   -2.0548 H   0  0  0  0  0  0  0  0  0  0  0  0
   -2.3514   -2.4103    0.4228 H   0  0  0  0  0  0  0  0  0  0  0  0
   -3.1506    0.3336    0.9922 H   0  0  0  0  0  0  0  0  0  0  0  0
   -1.7506   -0.5758    1.6912 H   0  0  0  0  0  0  0  0  0  0  0  0
   -1.6970    2.2063    0.9631 H   0  0  0  0  0  0  0  0  0  0  0  0
  1  2  1  0
  2  3  1  0
  3  4  1  0
  4  5  1  0
  5  6  1  0
  6  7  1  0
  7  8  1  0
  6  9  1  0
  9 10  1  0
  5 11  1  0
 11 12  2  0
 11  2  1  0
  1 13  1  0
  1 14  1  0
  2 15  1  6
  3 16  1  0
  3 17  1  0
  4 18  1  0
  4 19  1  0
  6 20  1  0
  7 21  1  0
  7 22  1  0
  8 23  1  0
  9 24  1  0
  9 25  1  0
 10 26  1  0
M  END
$$$$

     RDKit          3D

 26 26  0  0  0  0  0  0  0  0999 V2000
    2.8862    1.0602    1.3911 N   0  0  0  0  0  0  0  0  0  0  0  0
    2.1434    0.0839    0.6420 C   0  0  2  0  0  0  0  0  0  0  0  0
    2.0465    0.4211   -0.8302 C   0  0  0  0  0  0  0  0  0  0  0  0
    0.9244   -0.5401   -1.2469 C   0  0  0  0  0  0  0  0  0  0  0  0
   -0.0256   -0.2782   -0.1560 N   0  0  0  0  0  0  0  0  0  0  0  0
   -1.4689   -0.3099   -0.2457 C   0  0  0  0  0  0  0  0  0  0  0  0
   -2.0781    1.0523    0.0089 C   0  0  0  0  0  0  0  0  0  0  0  0
   -1.7845    1.5611    1.2514 O   0  0  0  0  0  0  0  0  0  0  0  0
   -2.0881   -1.3611    0.6413 C   0  0  0  0  0  0  0  0  0  0  0  0
   -1.5892   -2.6037    0.2451 O   0  0  0  0  0  0  0  0  0  0  0  0
    0.7108    0.0189    1.0302 C   0  0  0  0  0  0  0  0  0  0  0  0
    0.2548    0.1989    2.2085 O   0  0  0  0  0  0  0  0  0  0  0  0
    3.0178    1.9142    0.7892 H   0  0  0  0  0  0  0  0  0  0  0  0
    3.8504    0.6409    1.5485 H   0  0  0  0  0  0  0  0  0  0  0  0
    2.5439   -0.9457    0.7458 H   0  0  0  0  0  0  0  0  0  0  0  0
    1.7312    1.4740   -0.9475 H   0  0  0  0  0  0  0  0  0  0  0  0
    2.9830    0.1921   -1.3737 H   0  0  0  0  0  0  0  0  0  0  0  0
    1.3130   -1.5525   -1.1366 H   0  0  0  0  0  0  0  0  0  0  0  0
    0.5050   -0.2883   -2.2217 H   0  0  0  0  0  0  0  0  0  0  0  0
   -1.7469   -0.5742   -1.3064 H   0  0  0  0  0  0  0  0  0  0  0  0
   -3.1799    0.9628   -0.1269 H   0  0  0  0  0  0  0  0  0  0  0  0
   -1.7384    1.7787   -0.7521 H   0  0  0  0  0  0  0  0  0  0  0  0
   -2.3335    2.3572    1.3943 H   0  0  0  0  0  0  0  0  0  0  0  0
   -1.9468   -1.1632    1.7064 H   0  0  0  0  0  0  0  0  0  0  0  0
   -3.1761   -1.3784    0.3960 H   0  0  0  0  0  0  0  0  0  0  0  0
   -1.7542   -2.7212   -0.7072 H   0  0  0  0  0  0  0  0  0  0  0  0
  1  2  1  0
  2  3  1  0
  3  4  1  0
  4  5  1  0
  5  6  1  0
  6  7  1  0
  7  8  1  0
  6  9  1  0
  9 10  1  0
  5 11  1  0
 11 12  2  0
 11  2  1  0
  1 13  1  0
  1 14  1  0
  2 15  1  6
  3 16  1  0
  3 17  1  0
  4 18  1  0
  4 19  1  0
  6 20  1  0
  7 21  1  0
  7 22  1  0
  8 23  1  0
  9 24  1  0
  9 25  1  0
 10 26  1  0
M  END
$$$$

     RDKit          3D

 26 26  0  0  0  0  0  0  0  0999 V2000
    3.0192   -0.6073   -0.7171 N   0  0  0  0  0  0  0  0  0  0  0  0
    2.2323    0.5831   -0.8952 C   0  0  2  0  0  0  0  0  0  0  0  0
    1.8504    1.0884    0.5044 C   0  0  0  0  0  0  0  0  0  0  0  0
    0.7969    0.0393    0.8467 C   0  0  0  0  0  0  0  0  0  0  0  0
   -0.0138    0.0542   -0.3498 N   0  0  0  0  0  0  0  0  0  0  0  0
   -1.4393   -0.1307   -0.4334 C   0  0  0  0  0  0  0  0  0  0  0  0
   -1.8653   -1.4690    0.1238 C   0  0  0  0  0  0  0  0  0  0  0  0
   -1.2611   -2.4987   -0.5818 O   0  0  0  0  0  0  0  0  0  0  0  0
   -2.0736    0.9514    0.4449 C   0  0  0  0  0  0  0  0  0  0  0  0
   -3.4539    0.8581    0.4314 O   0  0  0  0  0  0  0  0  0  0  0  0
    0.8782    0.2887   -1.4326 C   0  0  0  0  0  0  0  0  0  0  0  0
    0.5939    0.2579   -2.6494 O   0  0  0  0  0  0  0  0  0  0  0  0
    3.6819   -0.7898   -1.5028 H   0  0  0  0  0  0  0  0  0  0  0  0
    3.5505   -0.5103    0.1893 H   0  0  0  0  0  0  0  0  0  0  0  0
    2.7463    1.3866   -1.4389 H   0  0  0  0  0  0  0  0  0  0  0  0
    1.3808    2.0874    0.3691 H   0  0  0  0  0  0  0  0  0  0  0  0
    2.6947    1.0722    1.1888 H   0  0  0  0  0  0  0  0  0  0  0  0
    0.2739    0.3597    1.7419 H   0  0  0  0  0  0  0  0  0  0  0  0
    1.3257   -0.9286    0.9438 H   0  0  0  0  0  0  0  0  0  0  0  0
   -1.7978   -0.0710   -1.4700 H   0  0  0  0  0  0  0  0  0  0  0  0
   -2.9822   -1.5203    0.0216 H   0  0  0  0  0  0  0  0  0  0  0  0
   -1.6429   -1.5789    1.1889 H   0  0  0  0  0  0  0  0  0  0  0  0
   -1.2550   -3.3199   -0.0530 H   0  0  0  0  0  0  0  0  0  0  0  0
   -1.6976    1.9584    0.1690 H   0  0  0  0  0  0  0  0  0  0  0  0
   -1.7457    0.7096    1.4926 H   0  0  0  0  0  0  0  0  0  0  0  0
   -3.7964    1.7294    0.0941 H   0  0  0  0  0  0  0  0  0  0  0  0
  1  2  1  0
  2  3  1  0
  3  4  1  0
  4  5  1  0
  5  6  1  0
  6  7  1  0
  7  8  1  0
  6  9  1  0
  9 10  1  0
  5 11  1  0
 11 12  2  0
 11  2  1  0
  1 13  1  0
  1 14  1  0
  2 15  1  6
  3 16  1  0
  3 17  1  0
  4 18  1  0
  4 19  1  0
  6 20  1  0
  7 21  1  0
  7 22  1  0
  8 23  1  0
  9 24  1  0
  9 25  1  0
 10 26  1  0
M  END
$$$$

     RDKit          3D

 26 26  0  0  0  0  0  0  0  0999 V2000
   -3.2691    0.9478   -0.6565 N   0  0  0  0  0  0  0  0  0  0  0  0
   -2.3779   -0.1620   -0.5264 C   0  0  2  0  0  0  0  0  0  0  0  0
   -2.0288   -0.4817    0.9177 C   0  0  0  0  0  0  0  0  0  0  0  0
   -0.7480    0.2664    1.1308 C   0  0  0  0  0  0  0  0  0  0  0  0
   -0.0426    0.0365   -0.1139 N   0  0  0  0  0  0  0  0  0  0  0  0
    1.3752   -0.1798   -0.2269 C   0  0  0  0  0  0  0  0  0  0  0  0
    1.8218   -1.4269    0.5124 C   0  0  0  0  0  0  0  0  0  0  0  0
    3.2047   -1.5395    0.3374 O   0  0  0  0  0  0  0  0  0  0  0  0
    2.1632    0.9939    0.2852 C   0  0  0  0  0  0  0  0  0  0  0  0
    1.8757    2.1550   -0.4126 O   0  0  0  0  0  0  0  0  0  0  0  0
   -1.0410    0.0765   -1.1267 C   0  0  0  0  0  0  0  0  0  0  0  0
   -0.7565    0.2906   -2.3493 O   0  0  0  0  0  0  0  0  0  0  0  0
   -3.1057    1.6436    0.1263 H   0  0  0  0  0  0  0  0  0  0  0  0
   -4.2584    0.5617   -0.6046 H   0  0  0  0  0  0  0  0  0  0  0  0
   -2.8436   -1.0520   -1.0274 H   0  0  0  0  0  0  0  0  0  0  0  0
   -2.8398   -0.0778    1.5393 H   0  0  0  0  0  0  0  0  0  0  0  0
   -1.9182   -1.5805    1.0212 H   0  0  0  0  0  0  0  0  0  0  0  0
   -0.1819   -0.0491    2.0120 H   0  0  0  0  0  0  0  0  0  0  0  0
   -1.0254    1.3537    1.2306 H   0  0  0  0  0  0  0  0  0  0  0  0
    1.6719   -0.3321   -1.2910 H   0  0  0  0  0  0  0  0  0  0  0  0
    1.2761   -2.3264    0.1603 H   0  0  0  0  0  0  0  0  0  0  0  0
    1.6431   -1.3503    1.6036 H   0  0  0  0  0  0  0  0  0  0  0  0
    3.4453   -2.4464   -0.0077 H   0  0  0  0  0  0  0  0  0  0  0  0
    3.2468    0.7541    0.0923 H   0  0  0  0  0  0  0  0  0  0  0  0
    2.0856    1.1165    1.3845 H   0  0  0  0  0  0  0  0  0  0  0  0
    2.6277    2.8083   -0.3389 H   0  0  0  0  0  0  0  0  0  0  0  0
  1  2  1  0
  2  3  1  0
  3  4  1  0
  4  5  1  0
  5  6  1  0
  6  7  1  0
  7  8  1  0
  6  9  1  0
  9 10  1  0
  5 11  1  0
 11 12  2  0
 11  2  1  0
  1 13  1  0
  1 14  1  0
  2 15  1  6
  3 16  1  0
  3 17  1  0
  4 18  1  0
  4 19  1  0
  6 20  1  0
  7 21  1  0
  7 22  1  0
  8 23  1  0
  9 24  1  0
  9 25  1  0
 10 26  1  0
M  END
$$$$
