
     RDKit          3D

 21 20  0  0  0  0  0  0  0  0999 V2000
    3.2263    0.7295   -0.1983 C   0  0  0  0  0  0  0  0  0  0  0  0
    2.5816    0.3583   -1.2717 C   0  0  0  0  0  0  0  0  0  0  0  0
    1.1720    0.0354   -1.1798 C   0  0  0  0  0  0  0  0  0  0  0  0
    0.5685   -0.3217   -2.2326 O   0  0  0  0  0  0  0  0  0  0  0  0
    0.4178    0.0914    0.0108 N   0  0  0  0  0  0  0  0  0  0  0  0
   -0.9902   -0.2581   -0.0325 C   0  0  0  0  0  0  0  0  0  0  0  0
   -1.8629    0.9101    0.3785 C   0  0  0  0  0  0  0  0  0  0  0  0
   -1.6798    2.0051   -0.4623 O   0  0  0  0  0  0  0  0  0  0  0  0
   -1.2113   -1.4557    0.8481 C   0  0  0  0  0  0  0  0  0  0  0  0
   -2.5427   -1.8598    0.8643 O   0  0  0  0  0  0  0  0  0  0  0  0
    2.7482    0.8023    0.7426 H   0  0  0  0  0  0  0  0  0  0  0  0
    4.2730    0.9657   -0.2840 H   0  0  0  0  0  0  0  0  0  0  0  0
    3.0846    0.2849   -2.2453 H   0  0  0  0  0  0  0  0  0  0  0  0
    0.8556    0.3786    0.9151 H   0  0  0  0  0  0  0  0  0  0  0  0
   -1.2772   -0.5338   -1.0608 H   0  0  0  0  0  0  0  0  0  0  0  0
   -2.9291    0.6118    0.4077 H   0  0  0  0  0  0  0  0  0  0  0  0
   -1.6115    1.2588    1.4146 H   0  0  0  0  0  0  0  0  0  0  0  0
   -0.7043    2.2219   -0.4391 H   0  0  0  0  0  0  0  0  0  0  0  0
   -0.9613   -1.2157    1.9227 H   0  0  0  0  0  0  0  0  0  0  0  0
   -0.5563   -2.2816    0.5200 H   0  0  0  0  0  0  0  0  0  0  0  0
   -2.6009   -2.7273    0.3915 H   0  0  0  0  0  0  0  0  0  0  0  0
  1  2  2  0
  2  3  1  0
  3  4  2  0
  3  5  1  0
  5  6  1  0
  6  7  1  0
  7  8  1  0
  6  9  1  0
  9 10  1  0
  1 11  1  0
  1 12  1  0
  2 13  1  0
  5 14  1  0
  6 15  1  0
  7 16  1  0
  7 17  1  0
  8 18  1  0
  9 19  1  0
  9 20  1  0
 10 21  1  0
M  END
$$$$

     RDKit          3D

 21 20  0  0  0  0  0  0  0  0999 V2000
    3.2612    0.0243   -0.5896 C   0  0  0  0  0  0  0  0  0  0  0  0
    2.6846    0.9404    0.1341 C   0  0  0  0  0  0  0  0  0  0  0  0
    1.2588    0.9776    0.4266 C   0  0  0  0  0  0  0  0  0  0  0  0
    0.7664    1.8996    1.1384 O   0  0  0  0  0  0  0  0  0  0  0  0
    0.3775   -0.0196   -0.0779 N   0  0  0  0  0  0  0  0  0  0  0  0
   -1.0505   -0.0056    0.1994 C   0  0  0  0  0  0  0  0  0  0  0  0
   -1.8514    0.1726   -1.0748 C   0  0  0  0  0  0  0  0  0  0  0  0
   -1.5393    1.3650   -1.7149 O   0  0  0  0  0  0  0  0  0  0  0  0
   -1.4992   -1.2273    0.9603 C   0  0  0  0  0  0  0  0  0  0  0  0
   -0.8079   -1.2630    2.1726 O   0  0  0  0  0  0  0  0  0  0  0  0
    4.3394    0.0817   -0.7533 H   0  0  0  0  0  0  0  0  0  0  0  0
    2.7801   -0.8032   -1.0553 H   0  0  0  0  0  0  0  0  0  0  0  0
    3.2894    1.7466    0.5622 H   0  0  0  0  0  0  0  0  0  0  0  0
    0.7966   -0.7734   -0.6630 H   0  0  0  0  0  0  0  0  0  0  0  0
   -1.2507    0.8825    0.8337 H   0  0  0  0  0  0  0  0  0  0  0  0
   -1.7181   -0.6736   -1.7712 H   0  0  0  0  0  0  0  0  0  0  0  0
   -2.9267    0.2110   -0.8117 H   0  0  0  0  0  0  0  0  0  0  0  0
   -2.3379    1.9040   -1.9416 H   0  0  0  0  0  0  0  0  0  0  0  0
   -1.3434   -2.1599    0.3904 H   0  0  0  0  0  0  0  0  0  0  0  0
   -2.5667   -1.0688    1.2178 H   0  0  0  0  0  0  0  0  0  0  0  0
   -0.6621   -2.2111    2.4179 H   0  0  0  0  0  0  0  0  0  0  0  0
  1  2  2  0
  2  3  1  0
  3  4  2  0
  3  5  1  0
  5  6  1  0
  6  7  1  0
  7  8  1  0
  6  9  1  0
  9 10  1  0
  1 11  1  0
  1 12  1  0
  2 13  1  0
  5 14  1  0
  6 15  1  0
  7 16  1  0
  7 17  1  0
  8 18  1  0
  9 19  1  0
  9 20  1  0
 10 21  1  0
M  END
$$$$

     RDKit          3D

 21 20  0  0  0  0  0  0  0  0999 V2000
    3.2218   -0.3132   -0.8872 C   0  0  0  0  0  0  0  0  0  0  0  0
    2.8566   -0.1280    0.3671 C   0  0  0  0  0  0  0  0  0  0  0  0
    1.4686   -0.0346    0.7052 C   0  0  0  0  0  0  0  0  0  0  0  0
    1.1325    0.1409    1.8957 O   0  0  0  0  0  0  0  0  0  0  0  0
    0.4800   -0.1374   -0.2830 N   0  0  0  0  0  0  0  0  0  0  0  0
   -0.9125   -0.0346    0.1223 C   0  0  0  0  0  0  0  0  0  0  0  0
   -1.6133    1.0799   -0.6324 C   0  0  0  0  0  0  0  0  0  0  0  0
   -0.9442    2.2648   -0.3353 O   0  0  0  0  0  0  0  0  0  0  0  0
   -1.5705   -1.3567   -0.1965 C   0  0  0  0  0  0  0  0  0  0  0  0
   -2.9028   -1.2738    0.1856 O   0  0  0  0  0  0  0  0  0  0  0  0
    2.5591   -0.4066   -1.7268 H   0  0  0  0  0  0  0  0  0  0  0  0
    4.2857   -0.3824   -1.1294 H   0  0  0  0  0  0  0  0  0  0  0  0
    3.6164   -0.0439    1.1628 H   0  0  0  0  0  0  0  0  0  0  0  0
    0.6372   -0.2827   -1.2985 H   0  0  0  0  0  0  0  0  0  0  0  0
   -0.9987    0.1188    1.2137 H   0  0  0  0  0  0  0  0  0  0  0  0
   -2.6885    1.1167   -0.3680 H   0  0  0  0  0  0  0  0  0  0  0  0
   -1.5429    0.8441   -1.7159 H   0  0  0  0  0  0  0  0  0  0  0  0
   -1.5491    3.0461   -0.4159 H   0  0  0  0  0  0  0  0  0  0  0  0
   -1.4423   -1.5354   -1.2753 H   0  0  0  0  0  0  0  0  0  0  0  0
   -1.0338   -2.1353    0.3989 H   0  0  0  0  0  0  0  0  0  0  0  0
   -3.0592   -0.5470    0.8478 H   0  0  0  0  0  0  0  0  0  0  0  0
  1  2  2  0
  2  3  1  0
  3  4  2  0
  3  5  1  0
  5  6  1  0
  6  7  1  0
  7  8  1  0
  6  9  1  0
  9 10  1  0
  1 11  1  0
  1 12  1  0
  2 13  1  0
  5 14  1  0
  6 15  1  0
  7 16  1  0
  7 17  1  0
  8 18  1  0
  9 19  1  0
  9 20  1  0
 10 21  1  0
M  END
$$$$

     RDKit          3D

 21 20  0  0  0  0  0  0  0  0999 V2000
    3.0547    2.1257    0.8593 C   0  0  0  0  0  0  0  0  0  0  0  0
    2.4046    0.9883    0.8338 C   0  0  0  0  0  0  0  0  0  0  0  0
    1.0595    0.9130    0.2402 C   0  0  0  0  0  0  0  0  0  0  0  0
    0.5405    1.9521   -0.2424 O   0  0  0  0  0  0  0  0  0  0  0  0
    0.3451   -0.3183    0.2078 N   0  0  0  0  0  0  0  0  0  0  0  0
   -0.9619   -0.4568   -0.3534 C   0  0  0  0  0  0  0  0  0  0  0  0
   -0.9353   -1.3546   -1.5828 C   0  0  0  0  0  0  0  0  0  0  0  0
   -0.0940   -0.8076   -2.5501 O   0  0  0  0  0  0  0  0  0  0  0  0
   -2.0107   -0.8982    0.6135 C   0  0  0  0  0  0  0  0  0  0  0  0
   -2.0690    0.0764    1.6328 O   0  0  0  0  0  0  0  0  0  0  0  0
    2.6135    3.0077    0.4493 H   0  0  0  0  0  0  0  0  0  0  0  0
    4.0301    2.1734    1.2914 H   0  0  0  0  0  0  0  0  0  0  0  0
    2.8308    0.0761    1.2442 H   0  0  0  0  0  0  0  0  0  0  0  0
    0.8400   -1.1443    0.6289 H   0  0  0  0  0  0  0  0  0  0  0  0
   -1.2721    0.5546   -0.7344 H   0  0  0  0  0  0  0  0  0  0  0  0
   -1.9389   -1.5771   -1.9444 H   0  0  0  0  0  0  0  0  0  0  0  0
   -0.4394   -2.3147   -1.2539 H   0  0  0  0  0  0  0  0  0  0  0  0
   -0.5291    0.0335   -2.8686 H   0  0  0  0  0  0  0  0  0  0  0  0
   -1.8265   -1.8515    1.0994 H   0  0  0  0  0  0  0  0  0  0  0  0
   -2.9704   -0.9668    0.0690 H   0  0  0  0  0  0  0  0  0  0  0  0
   -2.6716   -0.2109    2.3605 H   0  0  0  0  0  0  0  0  0  0  0  0
  1  2  2  0
  2  3  1  0
  3  4  2  0
  3  5  1  0
  5  6  1  0
  6  7  1  0
  7  8  1  0
  6  9  1  0
  9 10  1  0
  1 11  1  0
  1 12  1  0
  2 13  1  0
  5 14  1  0
  6 15  1  0
  7 16  1  0
  7 17  1  0
  8 18  1  0
  9 19  1  0
  9 20  1  0
 10 21  1  0
M  END
$$$$

     RDKit          3D

 21 20  0  0  0  0  0  0  0  0999 V2000
    3.7163   -1.2882   -0.3497 C   0  0  0  0  0  0  0  0  0  0  0  0
    2.6604   -0.9709    0.3692 C   0  0  0  0  0  0  0  0  0  0  0  0
    1.5027   -0.3795   -0.2649 C   0  0  0  0  0  0  0  0  0  0  0  0
    1.4934   -0.1614   -1.5166 O   0  0  0  0  0  0  0  0  0  0  0  0
    0.3263   -0.0075    0.4284 N   0  0  0  0  0  0  0  0  0  0  0  0
   -0.8105    0.5799   -0.2336 C   0  0  0  0  0  0  0  0  0  0  0  0
   -1.2466    1.8775    0.3968 C   0  0  0  0  0  0  0  0  0  0  0  0
   -2.3313    2.3745   -0.2874 O   0  0  0  0  0  0  0  0  0  0  0  0
   -1.9522   -0.4048   -0.0735 C   0  0  0  0  0  0  0  0  0  0  0  0
   -1.5821   -1.6321   -0.6754 O   0  0  0  0  0  0  0  0  0  0  0  0
    4.5805   -1.7259    0.1014 H   0  0  0  0  0  0  0  0  0  0  0  0
    3.7119   -1.1025   -1.4241 H   0  0  0  0  0  0  0  0  0  0  0  0
    2.6887   -1.1640    1.4284 H   0  0  0  0  0  0  0  0  0  0  0  0
    0.2633   -0.1578    1.4594 H   0  0  0  0  0  0  0  0  0  0  0  0
   -0.6498    0.6996   -1.3205 H   0  0  0  0  0  0  0  0  0  0  0  0
   -1.5622    1.6497    1.4310 H   0  0  0  0  0  0  0  0  0  0  0  0
   -0.4472    2.6452    0.3673 H   0  0  0  0  0  0  0  0  0  0  0  0
   -3.1934    2.2453    0.1462 H   0  0  0  0  0  0  0  0  0  0  0  0
   -2.8623   -0.0751   -0.5760 H   0  0  0  0  0  0  0  0  0  0  0  0
   -2.1091   -0.6487    0.9976 H   0  0  0  0  0  0  0  0  0  0  0  0
   -2.1967   -2.3532   -0.4042 H   0  0  0  0  0  0  0  0  0  0  0  0
  1  2  2  0
  2  3  1  0
  3  4  2  0
  3  5  1  0
  5  6  1  0
  6  7  1  0
  7  8  1  0
  6  9  1  0
  9 10  1  0
  1 11  1  0
  1 12  1  0
  2 13  1  0
  5 14  1  0
  6 15  1  0
  7 16  1  0
  7 17  1  0
  8 18  1  0
  9 19  1  0
  9 20  1  0
 10 21  1  0
M  END
$$$$

     RDKit          3D

 21 20  0  0  0  0  0  0  0  0999 V2000
    3.4776   -0.3054   -0.4776 C   0  0  0  0  0  0  0  0  0  0  0  0
    3.0068    0.1488    0.6675 C   0  0  0  0  0  0  0  0  0  0  0  0
    1.5945    0.2591    0.9748 C   0  0  0  0  0  0  0  0  0  0  0  0
    1.2253    0.7019    2.0893 O   0  0  0  0  0  0  0  0  0  0  0  0
    0.5857   -0.1074    0.0816 N   0  0  0  0  0  0  0  0  0  0  0  0
   -0.8224   -0.0229    0.3243 C   0  0  0  0  0  0  0  0  0  0  0  0
   -1.4416    0.9941   -0.6122 C   0  0  0  0  0  0  0  0  0  0  0  0
   -2.8153    1.0404   -0.3370 O   0  0  0  0  0  0  0  0  0  0  0  0
   -1.5843   -1.2901    0.2375 C   0  0  0  0  0  0  0  0  0  0  0  0
   -2.9261   -0.9974    0.5039 O   0  0  0  0  0  0  0  0  0  0  0  0
    2.8112   -0.6241   -1.2590 H   0  0  0  0  0  0  0  0  0  0  0  0
    4.5300   -0.3833   -0.6958 H   0  0  0  0  0  0  0  0  0  0  0  0
    3.7714    0.4473    1.3962 H   0  0  0  0  0  0  0  0  0  0  0  0
    0.8464   -0.4823   -0.8612 H   0  0  0  0  0  0  0  0  0  0  0  0
   -0.9508    0.3878    1.3536 H   0  0  0  0  0  0  0  0  0  0  0  0
   -0.9562    1.9747   -0.4480 H   0  0  0  0  0  0  0  0  0  0  0  0
   -1.3439    0.6667   -1.6590 H   0  0  0  0  0  0  0  0  0  0  0  0
   -3.1483    1.8782   -0.7702 H   0  0  0  0  0  0  0  0  0  0  0  0
   -1.5754   -1.7917   -0.7254 H   0  0  0  0  0  0  0  0  0  0  0  0
   -1.2542   -1.9474    1.0921 H   0  0  0  0  0  0  0  0  0  0  0  0
   -3.0304   -0.5469    1.3839 H   0  0  0  0  0  0  0  0  0  0  0  0
  1  2  2  0
  2  3  1  0
  3  4  2  0
  3  5  1  0
  5  6  1  0
  6  7  1  0
  7  8  1  0
  6  9  1  0
  9 10  1  0
  1 11  1  0
  1 12  1  0
  2 13  1  0
  5 14  1  0
  6 15  1  0
  7 16  1  0
  7 17  1  0
  8 18  1  0
  9 19  1  0
  9 20  1  0
 10 21  1  0
M  END
$$$$

     RDKit          3D

 21 20  0  0  0  0  0  0  0  0999 V2000
    3.3407    2.2254    0.5218 C   0  0  0  0  0  0  0  0  0  0  0  0
    2.6112    1.1313    0.4639 C   0  0  0  0  0  0  0  0  0  0  0  0
    1.1988    1.1939    0.0369 C   0  0  0  0  0  0  0  0  0  0  0  0
    0.6638    2.2817   -0.2786 O   0  0  0  0  0  0  0  0  0  0  0  0
    0.4384    0.0165   -0.0181 N   0  0  0  0  0  0  0  0  0  0  0  0
   -0.9411   -0.0585   -0.4156 C   0  0  0  0  0  0  0  0  0  0  0  0
   -1.7200   -0.5510    0.8110 C   0  0  0  0  0  0  0  0  0  0  0  0
   -3.0684   -0.6527    0.5139 O   0  0  0  0  0  0  0  0  0  0  0  0
   -1.1982   -1.0407   -1.5142 C   0  0  0  0  0  0  0  0  0  0  0  0
   -0.8341   -2.3447   -1.1548 O   0  0  0  0  0  0  0  0  0  0  0  0
    4.3654    2.1540    0.8355 H   0  0  0  0  0  0  0  0  0  0  0  0
    2.9516    3.1939    0.2668 H   0  0  0  0  0  0  0  0  0  0  0  0
    3.0387    0.1739    0.7288 H   0  0  0  0  0  0  0  0  0  0  0  0
    0.9067   -0.8787    0.2499 H   0  0  0  0  0  0  0  0  0  0  0  0
   -1.3796    0.9065   -0.6850 H   0  0  0  0  0  0  0  0  0  0  0  0
   -1.5619    0.1857    1.6115 H   0  0  0  0  0  0  0  0  0  0  0  0
   -1.2827   -1.5477    1.0698 H   0  0  0  0  0  0  0  0  0  0  0  0
   -3.2458   -1.5544    0.1539 H   0  0  0  0  0  0  0  0  0  0  0  0
   -0.7355   -0.7432   -2.4698 H   0  0  0  0  0  0  0  0  0  0  0  0
   -2.2943   -1.0680   -1.6890 H   0  0  0  0  0  0  0  0  0  0  0  0
   -1.2537   -3.0233   -1.7017 H   0  0  0  0  0  0  0  0  0  0  0  0
  1  2  2  0
  2  3  1  0
  3  4  2  0
  3  5  1  0
  5  6  1  0
  6  7  1  0
  7  8  1  0
  6  9  1  0
  9 10  1  0
  1 11  1  0
  1 12  1  0
  2 13  1  0
  5 14  1  0
  6 15  1  0
  7 16  1  0
  7 17  1  0
  8 18  1  0
  9 19  1  0
  9 20  1  0
 10 21  1  0
M  END
$$$$

     RDKit          3D

 21 20  0  0  0  0  0  0  0  0999 V2000
    3.3279   -0.2364    0.7620 C   0  0  0  0  0  0  0  0  0  0  0  0
    2.8946    0.3727   -0.3037 C   0  0  0  0  0  0  0  0  0  0  0  0
    1.4935    0.4905   -0.6486 C   0  0  0  0  0  0  0  0  0  0  0  0
    1.1153    1.0876   -1.6884 O   0  0  0  0  0  0  0  0  0  0  0  0
    0.4566   -0.0545    0.1545 N   0  0  0  0  0  0  0  0  0  0  0  0
   -0.9326    0.0756   -0.2099 C   0  0  0  0  0  0  0  0  0  0  0  0
   -1.4627   -1.3246   -0.4532 C   0  0  0  0  0  0  0  0  0  0  0  0
   -2.8122   -1.2988   -0.8144 O   0  0  0  0  0  0  0  0  0  0  0  0
   -1.7482    0.8156    0.8053 C   0  0  0  0  0  0  0  0  0  0  0  0
   -1.2128    2.0948    0.9428 O   0  0  0  0  0  0  0  0  0  0  0  0
    2.6192   -0.6836    1.4360 H   0  0  0  0  0  0  0  0  0  0  0  0
    4.3670   -0.3149    1.0030 H   0  0  0  0  0  0  0  0  0  0  0  0
    3.6335    0.8266   -0.9856 H   0  0  0  0  0  0  0  0  0  0  0  0
    0.6565   -0.5693    1.0377 H   0  0  0  0  0  0  0  0  0  0  0  0
   -0.9840    0.6403   -1.1612 H   0  0  0  0  0  0  0  0  0  0  0  0
   -1.2753   -1.9687    0.4205 H   0  0  0  0  0  0  0  0  0  0  0  0
   -0.8756   -1.7405   -1.2979 H   0  0  0  0  0  0  0  0  0  0  0  0
   -3.0714   -2.0887   -1.3419 H   0  0  0  0  0  0  0  0  0  0  0  0
   -1.8605    0.2842    1.7610 H   0  0  0  0  0  0  0  0  0  0  0  0
   -2.7672    0.9427    0.3834 H   0  0  0  0  0  0  0  0  0  0  0  0
   -1.5616    2.6494    0.1984 H   0  0  0  0  0  0  0  0  0  0  0  0
  1  2  2  0
  2  3  1  0
  3  4  2  0
  3  5  1  0
  5  6  1  0
  6  7  1  0
  7  8  1  0
  6  9  1  0
  9 10  1  0
  1 11  1  0
  1 12  1  0
  2 13  1  0
  5 14  1  0
  6 15  1  0
  7 16  1  0
  7 17  1  0
  8 18  1  0
  9 19  1  0
  9 20  1  0
 10 21  1  0
M  END
$$$$
