
     RDKit          3D

 30 30  0  0  0  0  0  0  0  0999 V2000
   -0.9952    2.2296    1.7332 N   0  0  0  0  0  0  0  0  0  0  0  0
    0.0562    1.9929    0.8149 C   0  0  0  0  0  0  0  0  0  0  0  0
    0.0898    0.6188    0.1797 C   0  0  2  0  0  0  0  0  0  0  0  0
    1.2412    0.6683   -0.6753 N   0  0  0  0  0  0  0  0  0  0  0  0
    2.0666   -0.4214   -0.8916 C   0  0  0  0  0  0  0  0  0  0  0  0
    2.8721   -0.9398    0.2754 C   0  0  0  0  0  0  0  0  0  0  0  0
    2.1361   -1.3678    1.3497 O   0  0  0  0  0  0  0  0  0  0  0  0
   -1.0877    0.2034   -0.5804 C   0  0  1  0  0  0  0  0  0  0  0  0
   -0.9407   -1.2187   -1.0816 C   0  0  0  0  0  0  0  0  0  0  0  0
   -2.2754   -1.8527   -0.6151 C   0  0  0  0  0  0  0  0  0  0  0  0
   -2.5896   -1.0638    0.5217 O   0  0  0  0  0  0  0  0  0  0  0  0
   -2.4343    0.1920   -0.0485 C   0  0  0  0  0  0  0  0  0  0  0  0
   -1.4564    3.1668    1.6155 H   0  0  0  0  0  0  0  0  0  0  0  0
   -0.6627    2.2470    2.7492 H   0  0  0  0  0  0  0  0  0  0  0  0
    0.0191    2.7914    0.0352 H   0  0  0  0  0  0  0  0  0  0  0  0
    1.0045    2.1885    1.3568 H   0  0  0  0  0  0  0  0  0  0  0  0
    0.3046   -0.0951    0.9809 H   0  0  0  0  0  0  0  0  0  0  0  0
    1.7035    1.5841   -0.7613 H   0  0  0  0  0  0  0  0  0  0  0  0
    1.6538   -1.2286   -1.5304 H   0  0  0  0  0  0  0  0  0  0  0  0
    2.9104   -0.0158   -1.5928 H   0  0  0  0  0  0  0  0  0  0  0  0
    3.4049   -1.8553   -0.1144 H   0  0  0  0  0  0  0  0  0  0  0  0
    3.6148   -0.2013    0.5549 H   0  0  0  0  0  0  0  0  0  0  0  0
    2.6427   -1.9043    1.9749 H   0  0  0  0  0  0  0  0  0  0  0  0
   -1.1365    0.8239   -1.5456 H   0  0  0  0  0  0  0  0  0  0  0  0
   -0.2079   -1.7810   -0.4224 H   0  0  0  0  0  0  0  0  0  0  0  0
   -0.7729   -1.3306   -2.1459 H   0  0  0  0  0  0  0  0  0  0  0  0
   -3.0493   -1.6822   -1.3930 H   0  0  0  0  0  0  0  0  0  0  0  0
   -2.1535   -2.9192   -0.3656 H   0  0  0  0  0  0  0  0  0  0  0  0
   -2.8031    1.0178    0.5587 H   0  0  0  0  0  0  0  0  0  0  0  0
   -3.1550    0.1531   -0.9367 H   0  0  0  0  0  0  0  0  0  0  0  0
  1  2  1  0
  2  3  1  0
  3  4  1  0
  4  5  1  0
  5  6  1  0
  6  7  1  0
  3  8  1  0
  8  9  1  0
  9 10  1  0
 10 11  1  0
 11 12  1  0
 12  8  1  0
  1 13  1  0
  1 14  1  0
  2 15  1  0
  2 16  1  0
  3 17  1  1
  4 18  1  0
  5 19  1  0
  5 20  1  0
  6 21  1  0
  6 22  1  0
  7 23  1  0
  8 24  1  6
  9 25  1  0
  9 26  1  0
 10 27  1  0
 10 28  1  0
 12 29  1  0
 12 30  1  0
M  END
$$$$

     RDKit          3D

 30 30  0  0  0  0  0  0  0  0999 V2000
   -1.1765    2.6814   -0.0981 N   0  0  0  0  0  0  0  0  0  0  0  0
   -0.0144    1.8811   -0.4790 C   0  0  0  0  0  0  0  0  0  0  0  0
   -0.0512    0.5134    0.1132 C   0  0  2  0  0  0  0  0  0  0  0  0
    1.1209   -0.2154   -0.3141 N   0  0  0  0  0  0  0  0  0  0  0  0
    2.3691    0.3197    0.1158 C   0  0  0  0  0  0  0  0  0  0  0  0
    3.4551   -0.6203   -0.4368 C   0  0  0  0  0  0  0  0  0  0  0  0
    3.2453   -1.8855    0.0765 O   0  0  0  0  0  0  0  0  0  0  0  0
   -1.2410   -0.3014   -0.3000 C   0  0  1  0  0  0  0  0  0  0  0  0
   -1.1166   -1.6445    0.3935 C   0  0  0  0  0  0  0  0  0  0  0  0
   -2.5669   -2.0215    0.5716 C   0  0  0  0  0  0  0  0  0  0  0  0
   -3.3453   -0.9910    0.0711 O   0  0  0  0  0  0  0  0  0  0  0  0
   -2.5583    0.1811    0.1727 C   0  0  0  0  0  0  0  0  0  0  0  0
   -0.9288    3.4994    0.4969 H   0  0  0  0  0  0  0  0  0  0  0  0
   -1.5520    3.0946   -1.0041 H   0  0  0  0  0  0  0  0  0  0  0  0
    0.1488    1.8723   -1.5650 H   0  0  0  0  0  0  0  0  0  0  0  0
    0.8532    2.4134   -0.0258 H   0  0  0  0  0  0  0  0  0  0  0  0
   -0.0320    0.5777    1.2207 H   0  0  0  0  0  0  0  0  0  0  0  0
    1.0635   -0.3938   -1.3207 H   0  0  0  0  0  0  0  0  0  0  0  0
    2.4212    0.4054    1.2009 H   0  0  0  0  0  0  0  0  0  0  0  0
    2.5069    1.3175   -0.3823 H   0  0  0  0  0  0  0  0  0  0  0  0
    4.4276   -0.1832   -0.2069 H   0  0  0  0  0  0  0  0  0  0  0  0
    3.3009   -0.6432   -1.5392 H   0  0  0  0  0  0  0  0  0  0  0  0
    3.3565   -1.8697    1.0618 H   0  0  0  0  0  0  0  0  0  0  0  0
   -1.2747   -0.4469   -1.3944 H   0  0  0  0  0  0  0  0  0  0  0  0
   -0.5430   -2.3539   -0.2118 H   0  0  0  0  0  0  0  0  0  0  0  0
   -0.6829   -1.4740    1.4032 H   0  0  0  0  0  0  0  0  0  0  0  0
   -2.7379   -2.9833    0.0605 H   0  0  0  0  0  0  0  0  0  0  0  0
   -2.8227   -2.1625    1.6344 H   0  0  0  0  0  0  0  0  0  0  0  0
   -3.0486    0.9081   -0.5309 H   0  0  0  0  0  0  0  0  0  0  0  0
   -2.5760    0.5251    1.2164 H   0  0  0  0  0  0  0  0  0  0  0  0
  1  2  1  0
  2  3  1  0
  3  4  1  0
  4  5  1  0
  5  6  1  0
  6  7  1  0
  3  8  1  0
  8  9  1  0
  9 10  1  0
 10 11  1  0
 11 12  1  0
 12  8  1  0
  1 13  1  0
  1 14  1  0
  2 15  1  0
  2 16  1  0
  3 17  1  1
  4 18  1  0
  5 19  1  0
  5 20  1  0
  6 21  1  0
  6 22  1  0
  7 23  1  0
  8 24  1  6
  9 25  1  0
  9 26  1  0
 10 27  1  0
 10 28  1  0
 12 29  1  0
 12 30  1  0
M  END
$$$$

     RDKit          3D

 30 30  0  0  0  0  0  0  0  0999 V2000
   -0.6185    3.0675   -0.2763 N   0  0  0  0  0  0  0  0  0  0  0  0
    0.3482    2.0465    0.1500 C   0  0  0  0  0  0  0  0  0  0  0  0
   -0.0986    0.6954   -0.2947 C   0  0  2  0  0  0  0  0  0  0  0  0
   -1.3608    0.3511    0.2278 N   0  0  0  0  0  0  0  0  0  0  0  0
   -1.7937   -0.9899    0.1885 C   0  0  0  0  0  0  0  0  0  0  0  0
   -3.2607   -1.1487    0.5728 C   0  0  0  0  0  0  0  0  0  0  0  0
   -3.5653   -2.5067    0.4868 O   0  0  0  0  0  0  0  0  0  0  0  0
    0.9086   -0.3655   -0.2042 C   0  0  1  0  0  0  0  0  0  0  0  0
    2.1532   -0.1006   -1.0714 C   0  0  0  0  0  0  0  0  0  0  0  0
    3.0516   -1.1493   -0.4413 C   0  0  0  0  0  0  0  0  0  0  0  0
    2.9088   -0.9067    0.9015 O   0  0  0  0  0  0  0  0  0  0  0  0
    1.6073   -0.4795    1.1369 C   0  0  0  0  0  0  0  0  0  0  0  0
   -0.5589    3.2873   -1.2924 H   0  0  0  0  0  0  0  0  0  0  0  0
   -0.3905    3.9310    0.2484 H   0  0  0  0  0  0  0  0  0  0  0  0
    1.2721    2.3059   -0.4613 H   0  0  0  0  0  0  0  0  0  0  0  0
    0.6157    2.1334    1.2017 H   0  0  0  0  0  0  0  0  0  0  0  0
   -0.2889    0.8286   -1.4262 H   0  0  0  0  0  0  0  0  0  0  0  0
   -1.9642    1.0764    0.5989 H   0  0  0  0  0  0  0  0  0  0  0  0
   -1.6302   -1.5594   -0.7255 H   0  0  0  0  0  0  0  0  0  0  0  0
   -1.2530   -1.5671    1.0152 H   0  0  0  0  0  0  0  0  0  0  0  0
   -3.9191   -0.6299   -0.1642 H   0  0  0  0  0  0  0  0  0  0  0  0
   -3.4811   -0.8122    1.5973 H   0  0  0  0  0  0  0  0  0  0  0  0
   -3.3059   -2.8760   -0.4057 H   0  0  0  0  0  0  0  0  0  0  0  0
    0.5659   -1.3621   -0.5078 H   0  0  0  0  0  0  0  0  0  0  0  0
    1.9514   -0.3241   -2.1390 H   0  0  0  0  0  0  0  0  0  0  0  0
    2.6079    0.8679   -0.8893 H   0  0  0  0  0  0  0  0  0  0  0  0
    2.5953   -2.1470   -0.6624 H   0  0  0  0  0  0  0  0  0  0  0  0
    4.0949   -1.0708   -0.8057 H   0  0  0  0  0  0  0  0  0  0  0  0
    1.0818   -1.1354    1.8331 H   0  0  0  0  0  0  0  0  0  0  0  0
    1.7267    0.5399    1.6088 H   0  0  0  0  0  0  0  0  0  0  0  0
  1  2  1  0
  2  3  1  0
  3  4  1  0
  4  5  1  0
  5  6  1  0
  6  7  1  0
  3  8  1  0
  8  9  1  0
  9 10  1  0
 10 11  1  0
 11 12  1  0
 12  8  1  0
  1 13  1  0
  1 14  1  0
  2 15  1  0
  2 16  1  0
  3 17  1  6
  4 18  1  0
  5 19  1  0
  5 20  1  0
  6 21  1  0
  6 22  1  0
  7 23  1  0
  8 24  1  6
  9 25  1  0
  9 26  1  0
 10 27  1  0
 10 28  1  0
 12 29  1  0
 12 30  1  0
M  END
$$$$

     RDKit          3D

 30 30  0  0  0  0  0  0  0  0999 V2000
   -1.6564    2.6194   -0.1366 N   0  0  0  0  0  0  0  0  0  0  0  0
   -0.5168    1.8658   -0.5110 C   0  0  0  0  0  0  0  0  0  0  0  0
   -0.1842    0.6818    0.3475 C   0  0  2  0  0  0  0  0  0  0  0  0
    0.9819   -0.0283   -0.1175 N   0  0  0  0  0  0  0  0  0  0  0  0
    2.1803    0.7328   -0.0091 C   0  0  0  0  0  0  0  0  0  0  0  0
    3.3438   -0.0092   -0.6695 C   0  0  0  0  0  0  0  0  0  0  0  0
    3.4850   -1.2390   -0.0199 O   0  0  0  0  0  0  0  0  0  0  0  0
   -1.3694   -0.1963    0.4939 C   0  0  1  0  0  0  0  0  0  0  0  0
   -1.9146   -0.7634   -0.7940 C   0  0  0  0  0  0  0  0  0  0  0  0
   -2.0544   -2.2405   -0.4366 C   0  0  0  0  0  0  0  0  0  0  0  0
   -2.1032   -2.2795    0.9734 O   0  0  0  0  0  0  0  0  0  0  0  0
   -1.0152   -1.4557    1.2635 C   0  0  0  0  0  0  0  0  0  0  0  0
   -2.3575    2.2167    0.4684 H   0  0  0  0  0  0  0  0  0  0  0  0
   -1.4876    3.6400   -0.0214 H   0  0  0  0  0  0  0  0  0  0  0  0
    0.3306    2.6030   -0.5765 H   0  0  0  0  0  0  0  0  0  0  0  0
   -0.6798    1.5104   -1.5759 H   0  0  0  0  0  0  0  0  0  0  0  0
    0.0757    1.0397    1.3705 H   0  0  0  0  0  0  0  0  0  0  0  0
    0.8476   -0.4484   -1.0753 H   0  0  0  0  0  0  0  0  0  0  0  0
    2.0920    1.7297   -0.4839 H   0  0  0  0  0  0  0  0  0  0  0  0
    2.4181    0.8227    1.0823 H   0  0  0  0  0  0  0  0  0  0  0  0
    4.3013    0.5525   -0.4719 H   0  0  0  0  0  0  0  0  0  0  0  0
    3.1246   -0.1361   -1.7486 H   0  0  0  0  0  0  0  0  0  0  0  0
    3.6864   -1.9573   -0.6897 H   0  0  0  0  0  0  0  0  0  0  0  0
   -2.1971    0.3432    1.0009 H   0  0  0  0  0  0  0  0  0  0  0  0
   -2.9262   -0.3372   -1.0206 H   0  0  0  0  0  0  0  0  0  0  0  0
   -1.2359   -0.6414   -1.6588 H   0  0  0  0  0  0  0  0  0  0  0  0
   -1.1617   -2.8097   -0.7435 H   0  0  0  0  0  0  0  0  0  0  0  0
   -2.9893   -2.6402   -0.8498 H   0  0  0  0  0  0  0  0  0  0  0  0
   -0.1243   -1.8920    0.8093 H   0  0  0  0  0  0  0  0  0  0  0  0
   -0.8937   -1.2838    2.3490 H   0  0  0  0  0  0  0  0  0  0  0  0
  1  2  1  0
  2  3  1  0
  3  4  1  0
  4  5  1  0
  5  6  1  0
  6  7  1  0
  3  8  1  0
  8  9  1  0
  9 10  1  0
 10 11  1  0
 11 12  1  0
 12  8  1  0
  1 13  1  0
  1 14  1  0
  2 15  1  0
  2 16  1  0
  3 17  1  1
  4 18  1  0
  5 19  1  0
  5 20  1  0
  6 21  1  0
  6 22  1  0
  7 23  1  0
  8 24  1  1
  9 25  1  0
  9 26  1  0
 10 27  1  0
 10 28  1  0
 12 29  1  0
 12 30  1  0
M  END
$$$$

     RDKit          3D

 30 30  0  0  0  0  0  0  0  0999 V2000
    0.0434    1.6909   -1.7406 N   0  0  0  0  0  0  0  0  0  0  0  0
    0.0898    2.0093   -0.3562 C   0  0  0  0  0  0  0  0  0  0  0  0
   -0.1483    0.8196    0.5481 C   0  0  2  0  0  0  0  0  0  0  0  0
    0.8217   -0.2201    0.3535 N   0  0  0  0  0  0  0  0  0  0  0  0
    2.1804    0.1830    0.6681 C   0  0  0  0  0  0  0  0  0  0  0  0
    3.0562   -1.0070    0.3120 C   0  0  0  0  0  0  0  0  0  0  0  0
    2.7320   -2.1500    1.0150 O   0  0  0  0  0  0  0  0  0  0  0  0
   -1.5131    0.3100    0.2696 C   0  0  1  0  0  0  0  0  0  0  0  0
   -1.7432   -0.1696   -1.1244 C   0  0  0  0  0  0  0  0  0  0  0  0
   -2.5505   -1.4360   -0.9115 C   0  0  0  0  0  0  0  0  0  0  0  0
   -3.0059   -1.4036    0.3982 O   0  0  0  0  0  0  0  0  0  0  0  0
   -1.9952   -0.7894    1.1437 C   0  0  0  0  0  0  0  0  0  0  0  0
   -0.2223    2.5460   -2.2748 H   0  0  0  0  0  0  0  0  0  0  0  0
    0.8953    1.2484   -2.1226 H   0  0  0  0  0  0  0  0  0  0  0  0
    1.0142    2.5438   -0.0459 H   0  0  0  0  0  0  0  0  0  0  0  0
   -0.7454    2.7183   -0.1541 H   0  0  0  0  0  0  0  0  0  0  0  0
   -0.0885    1.1720    1.5875 H   0  0  0  0  0  0  0  0  0  0  0  0
    0.6302   -0.9418    1.1013 H   0  0  0  0  0  0  0  0  0  0  0  0
    2.3008    0.3357    1.7708 H   0  0  0  0  0  0  0  0  0  0  0  0
    2.5179    1.0652    0.1234 H   0  0  0  0  0  0  0  0  0  0  0  0
    4.1313   -0.7788    0.4897 H   0  0  0  0  0  0  0  0  0  0  0  0
    2.9908   -1.2277   -0.7881 H   0  0  0  0  0  0  0  0  0  0  0  0
    3.0890   -2.0851    1.9312 H   0  0  0  0  0  0  0  0  0  0  0  0
   -2.2678    1.1597    0.4122 H   0  0  0  0  0  0  0  0  0  0  0  0
   -2.2811    0.5586   -1.7579 H   0  0  0  0  0  0  0  0  0  0  0  0
   -0.8415   -0.4828   -1.6711 H   0  0  0  0  0  0  0  0  0  0  0  0
   -1.9466   -2.3557   -1.0808 H   0  0  0  0  0  0  0  0  0  0  0  0
   -3.3963   -1.4670   -1.6119 H   0  0  0  0  0  0  0  0  0  0  0  0
   -1.2321   -1.4896    1.4655 H   0  0  0  0  0  0  0  0  0  0  0  0
   -2.5154   -0.3564    2.0502 H   0  0  0  0  0  0  0  0  0  0  0  0
  1  2  1  0
  2  3  1  0
  3  4  1  0
  4  5  1  0
  5  6  1  0
  6  7  1  0
  3  8  1  0
  8  9  1  0
  9 10  1  0
 10 11  1  0
 11 12  1  0
 12  8  1  0
  1 13  1  0
  1 14  1  0
  2 15  1  0
  2 16  1  0
  3 17  1  1
  4 18  1  0
  5 19  1  0
  5 20  1  0
  6 21  1  0
  6 22  1  0
  7 23  1  0
  8 24  1  1
  9 25  1  0
  9 26  1  0
 10 27  1  0
 10 28  1  0
 12 29  1  0
 12 30  1  0
M  END
$$$$

     RDKit          3D

 30 30  0  0  0  0  0  0  0  0999 V2000
   -0.9680    2.5712    0.3078 N   0  0  0  0  0  0  0  0  0  0  0  0
   -0.1328    1.7109   -0.5128 C   0  0  0  0  0  0  0  0  0  0  0  0
    0.1256    0.4051    0.2021 C   0  0  2  0  0  0  0  0  0  0  0  0
    0.9364   -0.4891   -0.5466 N   0  0  0  0  0  0  0  0  0  0  0  0
    2.2842   -0.0670   -0.8101 C   0  0  0  0  0  0  0  0  0  0  0  0
    3.2039   -0.0316    0.3573 C   0  0  0  0  0  0  0  0  0  0  0  0
    2.8900    0.7734    1.4022 O   0  0  0  0  0  0  0  0  0  0  0  0
   -1.2037   -0.2443    0.4874 C   0  0  1  0  0  0  0  0  0  0  0  0
   -2.0378   -0.5566   -0.7156 C   0  0  0  0  0  0  0  0  0  0  0  0
   -2.6398   -1.8988   -0.3714 C   0  0  0  0  0  0  0  0  0  0  0  0
   -2.2410   -2.2340    0.9145 O   0  0  0  0  0  0  0  0  0  0  0  0
   -1.0424   -1.5965    1.1426 C   0  0  0  0  0  0  0  0  0  0  0  0
   -1.9237    2.6271   -0.0680 H   0  0  0  0  0  0  0  0  0  0  0  0
   -0.5780    3.5355    0.4097 H   0  0  0  0  0  0  0  0  0  0  0  0
   -0.6588    1.4931   -1.4427 H   0  0  0  0  0  0  0  0  0  0  0  0
    0.8287    2.2522   -0.7260 H   0  0  0  0  0  0  0  0  0  0  0  0
    0.6107    0.7261    1.1684 H   0  0  0  0  0  0  0  0  0  0  0  0
    0.4907   -0.5992   -1.5006 H   0  0  0  0  0  0  0  0  0  0  0  0
    2.3012    0.9246   -1.3580 H   0  0  0  0  0  0  0  0  0  0  0  0
    2.7026   -0.7887   -1.5436 H   0  0  0  0  0  0  0  0  0  0  0  0
    3.4128   -1.0629    0.7641 H   0  0  0  0  0  0  0  0  0  0  0  0
    4.2033    0.3204   -0.0475 H   0  0  0  0  0  0  0  0  0  0  0  0
    2.6869    0.3431    2.2552 H   0  0  0  0  0  0  0  0  0  0  0  0
   -1.8127    0.3630    1.2048 H   0  0  0  0  0  0  0  0  0  0  0  0
   -1.4973   -0.6041   -1.6729 H   0  0  0  0  0  0  0  0  0  0  0  0
   -2.8873    0.1742   -0.7808 H   0  0  0  0  0  0  0  0  0  0  0  0
   -3.7485   -1.8331   -0.3572 H   0  0  0  0  0  0  0  0  0  0  0  0
   -2.3157   -2.6921   -1.0694 H   0  0  0  0  0  0  0  0  0  0  0  0
   -0.1720   -2.1131    0.6982 H   0  0  0  0  0  0  0  0  0  0  0  0
   -0.8175   -1.4087    2.2088 H   0  0  0  0  0  0  0  0  0  0  0  0
  1  2  1  0
  2  3  1  0
  3  4  1  0
  4  5  1  0
  5  6  1  0
  6  7  1  0
  3  8  1  0
  8  9  1  0
  9 10  1  0
 10 11  1  0
 11 12  1  0
 12  8  1  0
  1 13  1  0
  1 14  1  0
  2 15  1  0
  2 16  1  0
  3 17  1  1
  4 18  1  0
  5 19  1  0
  5 20  1  0
  6 21  1  0
  6 22  1  0
  7 23  1  0
  8 24  1  1
  9 25  1  0
  9 26  1  0
 10 27  1  0
 10 28  1  0
 12 29  1  0
 12 30  1  0
M  END
$$$$

     RDKit          3D

 30 30  0  0  0  0  0  0  0  0999 V2000
   -0.7994    2.0979    1.5100 N   0  0  0  0  0  0  0  0  0  0  0  0
    0.2977    1.5320    0.7126 C   0  0  0  0  0  0  0  0  0  0  0  0
   -0.0648    0.2055    0.1469 C   0  0  2  0  0  0  0  0  0  0  0  0
    0.8460   -0.4459   -0.6509 N   0  0  0  0  0  0  0  0  0  0  0  0
    2.0981   -0.9243   -0.3319 C   0  0  0  0  0  0  0  0  0  0  0  0
    3.2352    0.0266   -0.0934 C   0  0  0  0  0  0  0  0  0  0  0  0
    4.3513   -0.8020    0.1981 O   0  0  0  0  0  0  0  0  0  0  0  0
   -1.4062    0.2773   -0.6114 C   0  0  1  0  0  0  0  0  0  0  0  0
   -1.6497   -1.1358   -1.1401 C   0  0  0  0  0  0  0  0  0  0  0  0
   -2.5255   -1.6911   -0.0092 C   0  0  0  0  0  0  0  0  0  0  0  0
   -3.4639   -0.6347    0.0497 O   0  0  0  0  0  0  0  0  0  0  0  0
   -2.5730    0.4364    0.3336 C   0  0  0  0  0  0  0  0  0  0  0  0
   -1.3110    2.8156    0.9134 H   0  0  0  0  0  0  0  0  0  0  0  0
   -0.4103    2.6783    2.3148 H   0  0  0  0  0  0  0  0  0  0  0  0
    0.6287    2.2470   -0.0485 H   0  0  0  0  0  0  0  0  0  0  0  0
    1.1443    1.4254    1.4601 H   0  0  0  0  0  0  0  0  0  0  0  0
   -0.3516   -0.4393    1.0468 H   0  0  0  0  0  0  0  0  0  0  0  0
    0.7283   -0.3022   -1.6922 H   0  0  0  0  0  0  0  0  0  0  0  0
    2.4968   -1.6109   -1.1681 H   0  0  0  0  0  0  0  0  0  0  0  0
    2.0107   -1.6321    0.5765 H   0  0  0  0  0  0  0  0  0  0  0  0
    3.4049    0.5686   -1.0617 H   0  0  0  0  0  0  0  0  0  0  0  0
    3.0944    0.7461    0.7038 H   0  0  0  0  0  0  0  0  0  0  0  0
    4.9009   -0.9549   -0.6007 H   0  0  0  0  0  0  0  0  0  0  0  0
   -1.3645    0.9829   -1.4307 H   0  0  0  0  0  0  0  0  0  0  0  0
   -2.2443   -1.1140   -2.0796 H   0  0  0  0  0  0  0  0  0  0  0  0
   -0.7373   -1.6995   -1.2962 H   0  0  0  0  0  0  0  0  0  0  0  0
   -1.9688   -1.6773    0.9305 H   0  0  0  0  0  0  0  0  0  0  0  0
   -2.9746   -2.6557   -0.2775 H   0  0  0  0  0  0  0  0  0  0  0  0
   -2.2950    0.2821    1.3882 H   0  0  0  0  0  0  0  0  0  0  0  0
   -3.0974    1.3981    0.2071 H   0  0  0  0  0  0  0  0  0  0  0  0
  1  2  1  0
  2  3  1  0
  3  4  1  0
  4  5  1  0
  5  6  1  0
  6  7  1  0
  3  8  1  0
  8  9  1  0
  9 10  1  0
 10 11  1  0
 11 12  1  0
 12  8  1  0
  1 13  1  0
  1 14  1  0
  2 15  1  0
  2 16  1  0
  3 17  1  1
  4 18  1  0
  5 19  1  0
  5 20  1  0
  6 21  1  0
  6 22  1  0
  7 23  1  0
  8 24  1  6
  9 25  1  0
  9 26  1  0
 10 27  1  0
 10 28  1  0
 12 29  1  0
 12 30  1  0
M  END
$$$$

     RDKit          3D

 30 30  0  0  0  0  0  0  0  0999 V2000
   -1.1240    2.6953    0.3647 N   0  0  0  0  0  0  0  0  0  0  0  0
    0.1112    2.0454   -0.0040 C   0  0  0  0  0  0  0  0  0  0  0  0
    0.2561    0.6348    0.4426 C   0  0  2  0  0  0  0  0  0  0  0  0
    1.5609    0.1976   -0.0252 N   0  0  0  0  0  0  0  0  0  0  0  0
    1.8582   -1.1628    0.2303 C   0  0  0  0  0  0  0  0  0  0  0  0
    3.2610   -1.4200   -0.3366 C   0  0  0  0  0  0  0  0  0  0  0  0
    3.3209   -1.1762   -1.6921 O   0  0  0  0  0  0  0  0  0  0  0  0
   -0.8203   -0.3090    0.1976 C   0  0  1  0  0  0  0  0  0  0  0  0
   -2.1502    0.0207    0.8250 C   0  0  0  0  0  0  0  0  0  0  0  0
   -2.9782   -1.1193    0.1821 C   0  0  0  0  0  0  0  0  0  0  0  0
   -2.3243   -1.4719   -0.9676 O   0  0  0  0  0  0  0  0  0  0  0  0
   -1.2881   -0.5527   -1.2048 C   0  0  0  0  0  0  0  0  0  0  0  0
   -1.1378    2.7267    1.4258 H   0  0  0  0  0  0  0  0  0  0  0  0
   -1.0892    3.6715   -0.0276 H   0  0  0  0  0  0  0  0  0  0  0  0
    0.2382    2.1933   -1.0943 H   0  0  0  0  0  0  0  0  0  0  0  0
    0.9154    2.7044    0.4443 H   0  0  0  0  0  0  0  0  0  0  0  0
    0.3773    0.6837    1.5718 H   0  0  0  0  0  0  0  0  0  0  0  0
    2.3284    0.7848    0.3755 H   0  0  0  0  0  0  0  0  0  0  0  0
    1.1937   -1.8797   -0.2974 H   0  0  0  0  0  0  0  0  0  0  0  0
    1.8975   -1.4680    1.2825 H   0  0  0  0  0  0  0  0  0  0  0  0
    4.0272   -0.8098    0.1652 H   0  0  0  0  0  0  0  0  0  0  0  0
    3.5522   -2.4865   -0.1912 H   0  0  0  0  0  0  0  0  0  0  0  0
    2.5685   -0.6028   -2.0237 H   0  0  0  0  0  0  0  0  0  0  0  0
   -0.5397   -1.3066    0.6074 H   0  0  0  0  0  0  0  0  0  0  0  0
   -2.5808    0.9274    0.4091 H   0  0  0  0  0  0  0  0  0  0  0  0
   -2.1654   -0.0635    1.9158 H   0  0  0  0  0  0  0  0  0  0  0  0
   -2.9202   -1.9509    0.9143 H   0  0  0  0  0  0  0  0  0  0  0  0
   -4.0212   -0.8020    0.0356 H   0  0  0  0  0  0  0  0  0  0  0  0
   -0.5425   -1.0226   -1.8518 H   0  0  0  0  0  0  0  0  0  0  0  0
   -1.7847    0.3184   -1.6732 H   0  0  0  0  0  0  0  0  0  0  0  0
  1  2  1  0
  2  3  1  0
  3  4  1  0
  4  5  1  0
  5  6  1  0
  6  7  1  0
  3  8  1  0
  8  9  1  0
  9 10  1  0
 10 11  1  0
 11 12  1  0
 12  8  1  0
  1 13  1  0
  1 14  1  0
  2 15  1  0
  2 16  1  0
  3 17  1  1
  4 18  1  0
  5 19  1  0
  5 20  1  0
  6 21  1  0
  6 22  1  0
  7 23  1  0
  8 24  1  1
  9 25  1  0
  9 26  1  0
 10 27  1  0
 10 28  1  0
 12 29  1  0
 12 30  1  0
M  END
$$$$
