
     RDKit          3D

 29 29  0  0  0  0  0  0  0  0999 V2000
    4.2930    0.2893    1.1789 N   0  0  0  0  0  0  0  0  0  0  0  0
    4.2997   -0.6267    0.0748 C   0  0  0  0  0  0  0  0  0  0  0  0
    2.8958   -0.9966   -0.3119 C   0  0  0  0  0  0  0  0  0  0  0  0
    2.7110   -1.7947   -1.2659 O   0  0  0  0  0  0  0  0  0  0  0  0
    1.7656   -0.4776    0.3612 N   0  0  0  0  0  0  0  0  0  0  0  0
    0.4234   -0.8717   -0.0572 C   0  0  0  0  0  0  0  0  0  0  0  0
   -0.6045   -0.1845    0.8143 C   0  0  0  0  0  0  0  0  0  0  0  0
   -1.9721   -0.6280    0.3374 C   0  0  1  0  0  0  0  0  0  0  0  0
   -3.0913   -0.0163    1.1217 C   0  0  0  0  0  0  0  0  0  0  0  0
   -3.3440    1.2953    0.8390 O   0  0  0  0  0  0  0  0  0  0  0  0
   -2.9065    1.7516   -0.3649 C   0  0  0  0  0  0  0  0  0  0  0  0
   -2.6418    0.7438   -1.4065 C   0  0  0  0  0  0  0  0  0  0  0  0
   -2.1606   -0.4601   -1.0021 O   0  0  0  0  0  0  0  0  0  0  0  0
    5.1351    0.1846    1.7884 H   0  0  0  0  0  0  0  0  0  0  0  0
    4.0787    1.2622    0.9120 H   0  0  0  0  0  0  0  0  0  0  0  0
    4.7456   -0.0754   -0.8019 H   0  0  0  0  0  0  0  0  0  0  0  0
    4.9093   -1.5247    0.2991 H   0  0  0  0  0  0  0  0  0  0  0  0
    1.9019    0.1876    1.1572 H   0  0  0  0  0  0  0  0  0  0  0  0
    0.2909   -1.9637    0.0897 H   0  0  0  0  0  0  0  0  0  0  0  0
    0.3084   -0.5755   -1.1184 H   0  0  0  0  0  0  0  0  0  0  0  0
   -0.4633   -0.5731    1.8556 H   0  0  0  0  0  0  0  0  0  0  0  0
   -0.4703    0.8948    0.8326 H   0  0  0  0  0  0  0  0  0  0  0  0
   -2.0115   -1.7394    0.5415 H   0  0  0  0  0  0  0  0  0  0  0  0
   -4.0107   -0.6067    0.9086 H   0  0  0  0  0  0  0  0  0  0  0  0
   -2.9165   -0.1463    2.2262 H   0  0  0  0  0  0  0  0  0  0  0  0
   -3.6921    2.4623   -0.7610 H   0  0  0  0  0  0  0  0  0  0  0  0
   -2.0139    2.4190   -0.1938 H   0  0  0  0  0  0  0  0  0  0  0  0
   -1.8955    1.1808   -2.1342 H   0  0  0  0  0  0  0  0  0  0  0  0
   -3.5639    0.5897   -2.0345 H   0  0  0  0  0  0  0  0  0  0  0  0
  1  2  1  0
  2  3  1  0
  3  4  2  0
  3  5  1  0
  5  6  1  0
  6  7  1  0
  7  8  1  0
  8  9  1  0
  9 10  1  0
 10 11  1  0
 11 12  1  0
 12 13  1  0
 13  8  1  0
  1 14  1  0
  1 15  1  0
  2 16  1  0
  2 17  1  0
  5 18  1  0
  6 19  1  0
  6 20  1  0
  7 21  1  0
  7 22  1  0
  8 23  1  6
  9 24  1  0
  9 25  1  0
 11 26  1  0
 11 27  1  0
 12 28  1  0
 12 29  1  0
M  END
$$$$

     RDKit          3D

 29 29  0  0  0  0  0  0  0  0999 V2000
    4.7372    0.7911   -0.4064 N   0  0  0  0  0  0  0  0  0  0  0  0
    4.2477   -0.5937   -0.3492 C   0  0  0  0  0  0  0  0  0  0  0  0
    2.8027   -0.5878   -0.0777 C   0  0  0  0  0  0  0  0  0  0  0  0
    2.1316   -1.6341    0.0220 O   0  0  0  0  0  0  0  0  0  0  0  0
    2.0958    0.6503    0.0860 N   0  0  0  0  0  0  0  0  0  0  0  0
    0.6997    0.7140    0.3497 C   0  0  0  0  0  0  0  0  0  0  0  0
   -0.1465    0.0790   -0.7283 C   0  0  0  0  0  0  0  0  0  0  0  0
   -1.5956    0.2303   -0.2983 C   0  0  1  0  0  0  0  0  0  0  0  0
   -2.5349   -0.3737   -1.3095 C   0  0  0  0  0  0  0  0  0  0  0  0
   -3.8261   -0.0492   -0.9588 O   0  0  0  0  0  0  0  0  0  0  0  0
   -3.9217    0.1379    0.4283 C   0  0  0  0  0  0  0  0  0  0  0  0
   -3.0144   -0.7926    1.1768 C   0  0  0  0  0  0  0  0  0  0  0  0
   -1.7033   -0.4115    0.9478 O   0  0  0  0  0  0  0  0  0  0  0  0
    4.2763    1.2792   -1.1874 H   0  0  0  0  0  0  0  0  0  0  0  0
    4.6120    1.2435    0.5259 H   0  0  0  0  0  0  0  0  0  0  0  0
    4.4693   -1.1134   -1.2876 H   0  0  0  0  0  0  0  0  0  0  0  0
    4.7436   -1.1232    0.4933 H   0  0  0  0  0  0  0  0  0  0  0  0
    2.6401    1.5245    0.0057 H   0  0  0  0  0  0  0  0  0  0  0  0
    0.3697    1.7627    0.4566 H   0  0  0  0  0  0  0  0  0  0  0  0
    0.4524    0.2109    1.3076 H   0  0  0  0  0  0  0  0  0  0  0  0
   -0.0347    0.6140   -1.6929 H   0  0  0  0  0  0  0  0  0  0  0  0
    0.0390   -1.0081   -0.8322 H   0  0  0  0  0  0  0  0  0  0  0  0
   -1.7987    1.3023   -0.2275 H   0  0  0  0  0  0  0  0  0  0  0  0
   -2.4233   -1.4660   -1.3983 H   0  0  0  0  0  0  0  0  0  0  0  0
   -2.3042    0.0623   -2.2907 H   0  0  0  0  0  0  0  0  0  0  0  0
   -4.9855   -0.0062    0.7535 H   0  0  0  0  0  0  0  0  0  0  0  0
   -3.6218    1.1757    0.6817 H   0  0  0  0  0  0  0  0  0  0  0  0
   -3.2873   -0.7676    2.2471 H   0  0  0  0  0  0  0  0  0  0  0  0
   -3.1192   -1.8508    0.8462 H   0  0  0  0  0  0  0  0  0  0  0  0
  1  2  1  0
  2  3  1  0
  3  4  2  0
  3  5  1  0
  5  6  1  0
  6  7  1  0
  7  8  1  0
  8  9  1  0
  9 10  1  0
 10 11  1  0
 11 12  1  0
 12 13  1  0
 13  8  1  0
  1 14  1  0
  1 15  1  0
  2 16  1  0
  2 17  1  0
  5 18  1  0
  6 19  1  0
  6 20  1  0
  7 21  1  0
  7 22  1  0
  8 23  1  1
  9 24  1  0
  9 25  1  0
 11 26  1  0
 11 27  1  0
 12 28  1  0
 12 29  1  0
M  END
$$$$

     RDKit          3D

 29 29  0  0  0  0  0  0  0  0999 V2000
    4.7828   -0.3141   -0.3683 N   0  0  0  0  0  0  0  0  0  0  0  0
    4.1131    0.7944    0.2363 C   0  0  0  0  0  0  0  0  0  0  0  0
    2.6389    0.5341    0.3924 C   0  0  0  0  0  0  0  0  0  0  0  0
    1.8921    1.4045    0.9075 O   0  0  0  0  0  0  0  0  0  0  0  0
    2.0440   -0.6868   -0.0301 N   0  0  0  0  0  0  0  0  0  0  0  0
    0.6466   -0.9697    0.1021 C   0  0  0  0  0  0  0  0  0  0  0  0
   -0.2232    0.0175   -0.6468 C   0  0  0  0  0  0  0  0  0  0  0  0
   -1.6792   -0.4118   -0.4132 C   0  0  1  0  0  0  0  0  0  0  0  0
   -2.0402   -0.4022    1.0216 C   0  0  0  0  0  0  0  0  0  0  0  0
   -3.3512   -0.2458    1.3375 O   0  0  0  0  0  0  0  0  0  0  0  0
   -4.2147    0.0292    0.3129 C   0  0  0  0  0  0  0  0  0  0  0  0
   -3.4842    1.0062   -0.6197 C   0  0  0  0  0  0  0  0  0  0  0  0
   -2.5128    0.2764   -1.2573 O   0  0  0  0  0  0  0  0  0  0  0  0
    5.6156    0.0723   -0.9071 H   0  0  0  0  0  0  0  0  0  0  0  0
    5.2365   -0.9364    0.3631 H   0  0  0  0  0  0  0  0  0  0  0  0
    4.5854    1.0220    1.2135 H   0  0  0  0  0  0  0  0  0  0  0  0
    4.1952    1.7157   -0.3758 H   0  0  0  0  0  0  0  0  0  0  0  0
    2.7182   -1.3883   -0.4585 H   0  0  0  0  0  0  0  0  0  0  0  0
    0.3003   -0.9603    1.1603 H   0  0  0  0  0  0  0  0  0  0  0  0
    0.4482   -1.9792   -0.3066 H   0  0  0  0  0  0  0  0  0  0  0  0
   -0.0688   -0.0215   -1.7433 H   0  0  0  0  0  0  0  0  0  0  0  0
   -0.1069    1.0456   -0.2901 H   0  0  0  0  0  0  0  0  0  0  0  0
   -1.6993   -1.4897   -0.7567 H   0  0  0  0  0  0  0  0  0  0  0  0
   -1.6768   -1.3424    1.5307 H   0  0  0  0  0  0  0  0  0  0  0  0
   -1.4643    0.4175    1.5445 H   0  0  0  0  0  0  0  0  0  0  0  0
   -5.1250    0.4972    0.7420 H   0  0  0  0  0  0  0  0  0  0  0  0
   -4.4343   -0.8896   -0.2725 H   0  0  0  0  0  0  0  0  0  0  0  0
   -4.1609    1.4718   -1.3320 H   0  0  0  0  0  0  0  0  0  0  0  0
   -2.9749    1.7332    0.0525 H   0  0  0  0  0  0  0  0  0  0  0  0
  1  2  1  0
  2  3  1  0
  3  4  2  0
  3  5  1  0
  5  6  1  0
  6  7  1  0
  7  8  1  0
  8  9  1  0
  9 10  1  0
 10 11  1  0
 11 12  1  0
 12 13  1  0
 13  8  1  0
  1 14  1  0
  1 15  1  0
  2 16  1  0
  2 17  1  0
  5 18  1  0
  6 19  1  0
  6 20  1  0
  7 21  1  0
  7 22  1  0
  8 23  1  6
  9 24  1  0
  9 25  1  0
 11 26  1  0
 11 27  1  0
 12 28  1  0
 12 29  1  0
M  END
$$$$

     RDKit          3D

 29 29  0  0  0  0  0  0  0  0999 V2000
   -5.0401    0.0384   -0.9267 N   0  0  0  0  0  0  0  0  0  0  0  0
   -4.2018    0.2390    0.2141 C   0  0  0  0  0  0  0  0  0  0  0  0
   -2.8490   -0.3090   -0.0276 C   0  0  0  0  0  0  0  0  0  0  0  0
   -2.6045   -0.8486   -1.1240 O   0  0  0  0  0  0  0  0  0  0  0  0
   -1.8498   -0.2264    0.9583 N   0  0  0  0  0  0  0  0  0  0  0  0
   -0.5099   -0.7327    0.8035 C   0  0  0  0  0  0  0  0  0  0  0  0
    0.1536   -0.0368   -0.3586 C   0  0  0  0  0  0  0  0  0  0  0  0
    1.5655   -0.6031   -0.4818 C   0  0  1  0  0  0  0  0  0  0  0  0
    2.3101    0.0351   -1.6221 C   0  0  0  0  0  0  0  0  0  0  0  0
    2.8330    1.2777   -1.2435 O   0  0  0  0  0  0  0  0  0  0  0  0
    3.8372    1.0995   -0.3046 C   0  0  0  0  0  0  0  0  0  0  0  0
    3.5698   -0.1352    0.5312 C   0  0  0  0  0  0  0  0  0  0  0  0
    2.2056   -0.2972    0.7261 O   0  0  0  0  0  0  0  0  0  0  0  0
   -4.7809    0.6391   -1.7352 H   0  0  0  0  0  0  0  0  0  0  0  0
   -6.0263    0.2731   -0.6630 H   0  0  0  0  0  0  0  0  0  0  0  0
   -4.6314   -0.3328    1.0644 H   0  0  0  0  0  0  0  0  0  0  0  0
   -4.1732    1.3167    0.4867 H   0  0  0  0  0  0  0  0  0  0  0  0
   -2.1173    0.2398    1.8629 H   0  0  0  0  0  0  0  0  0  0  0  0
    0.0917   -0.5094    1.6985 H   0  0  0  0  0  0  0  0  0  0  0  0
   -0.5261   -1.8194    0.5654 H   0  0  0  0  0  0  0  0  0  0  0  0
   -0.3829   -0.1836   -1.3022 H   0  0  0  0  0  0  0  0  0  0  0  0
    0.2216    1.0509   -0.0784 H   0  0  0  0  0  0  0  0  0  0  0  0
    1.5001   -1.6913   -0.6298 H   0  0  0  0  0  0  0  0  0  0  0  0
    1.6097    0.1782   -2.4528 H   0  0  0  0  0  0  0  0  0  0  0  0
    3.1148   -0.6411   -1.9992 H   0  0  0  0  0  0  0  0  0  0  0  0
    3.8283    1.9605    0.3780 H   0  0  0  0  0  0  0  0  0  0  0  0
    4.8034    1.0342   -0.8529 H   0  0  0  0  0  0  0  0  0  0  0  0
    4.0304    0.0076    1.5301 H   0  0  0  0  0  0  0  0  0  0  0  0
    4.0182   -1.0231    0.0367 H   0  0  0  0  0  0  0  0  0  0  0  0
  1  2  1  0
  2  3  1  0
  3  4  2  0
  3  5  1  0
  5  6  1  0
  6  7  1  0
  7  8  1  0
  8  9  1  0
  9 10  1  0
 10 11  1  0
 11 12  1  0
 12 13  1  0
 13  8  1  0
  1 14  1  0
  1 15  1  0
  2 16  1  0
  2 17  1  0
  5 18  1  0
  6 19  1  0
  6 20  1  0
  7 21  1  0
  7 22  1  0
  8 23  1  6
  9 24  1  0
  9 25  1  0
 11 26  1  0
 11 27  1  0
 12 28  1  0
 12 29  1  0
M  END
$$$$

     RDKit          3D

 29 29  0  0  0  0  0  0  0  0999 V2000
    5.3738   -0.5225    0.2907 N   0  0  0  0  0  0  0  0  0  0  0  0
    4.2804    0.4166    0.4069 C   0  0  0  0  0  0  0  0  0  0  0  0
    3.0416   -0.2165   -0.0646 C   0  0  0  0  0  0  0  0  0  0  0  0
    3.0417   -1.4091   -0.4884 O   0  0  0  0  0  0  0  0  0  0  0  0
    1.7925    0.4786   -0.0661 N   0  0  0  0  0  0  0  0  0  0  0  0
    0.6047   -0.1720   -0.5337 C   0  0  0  0  0  0  0  0  0  0  0  0
   -0.5550    0.8142   -0.4139 C   0  0  0  0  0  0  0  0  0  0  0  0
   -1.8133    0.1296   -0.9076 C   0  0  1  0  0  0  0  0  0  0  0  0
   -2.0680   -1.0877   -0.0565 C   0  0  0  0  0  0  0  0  0  0  0  0
   -3.3959   -1.4328    0.0073 O   0  0  0  0  0  0  0  0  0  0  0  0
   -4.2498   -0.4049    0.3176 C   0  0  0  0  0  0  0  0  0  0  0  0
   -3.4708    0.8886    0.3990 C   0  0  0  0  0  0  0  0  0  0  0  0
   -2.8415    1.0499   -0.8495 O   0  0  0  0  0  0  0  0  0  0  0  0
    5.0065   -1.4920    0.1671 H   0  0  0  0  0  0  0  0  0  0  0  0
    6.0646   -0.4419    1.0739 H   0  0  0  0  0  0  0  0  0  0  0  0
    4.5378    1.3368   -0.1818 H   0  0  0  0  0  0  0  0  0  0  0  0
    4.1834    0.7282    1.4772 H   0  0  0  0  0  0  0  0  0  0  0  0
    1.8112    1.4657    0.2884 H   0  0  0  0  0  0  0  0  0  0  0  0
    0.3557   -1.0460    0.1128 H   0  0  0  0  0  0  0  0  0  0  0  0
    0.7030   -0.5116   -1.5849 H   0  0  0  0  0  0  0  0  0  0  0  0
   -0.6731    1.1112    0.6357 H   0  0  0  0  0  0  0  0  0  0  0  0
   -0.3464    1.7136   -1.0288 H   0  0  0  0  0  0  0  0  0  0  0  0
   -1.6275   -0.1931   -1.9398 H   0  0  0  0  0  0  0  0  0  0  0  0
   -1.6065   -0.9580    0.9637 H   0  0  0  0  0  0  0  0  0  0  0  0
   -1.5167   -1.9353   -0.5126 H   0  0  0  0  0  0  0  0  0  0  0  0
   -4.8094   -0.5826    1.2586 H   0  0  0  0  0  0  0  0  0  0  0  0
   -4.9897   -0.2902   -0.5128 H   0  0  0  0  0  0  0  0  0  0  0  0
   -4.1574    1.7256    0.5769 H   0  0  0  0  0  0  0  0  0  0  0  0
   -2.6759    0.8379    1.1649 H   0  0  0  0  0  0  0  0  0  0  0  0
  1  2  1  0
  2  3  1  0
  3  4  2  0
  3  5  1  0
  5  6  1  0
  6  7  1  0
  7  8  1  0
  8  9  1  0
  9 10  1  0
 10 11  1  0
 11 12  1  0
 12 13  1  0
 13  8  1  0
  1 14  1  0
  1 15  1  0
  2 16  1  0
  2 17  1  0
  5 18  1  0
  6 19  1  0
  6 20  1  0
  7 21  1  0
  7 22  1  0
  8 23  1  6
  9 24  1  0
  9 25  1  0
 11 26  1  0
 11 27  1  0
 12 28  1  0
 12 29  1  0
M  END
$$$$

     RDKit          3D

 29 29  0  0  0  0  0  0  0  0999 V2000
    4.8502   -1.1873   -0.2239 N   0  0  0  0  0  0  0  0  0  0  0  0
    4.2368    0.0759    0.1250 C   0  0  0  0  0  0  0  0  0  0  0  0
    2.7698    0.0346   -0.1482 C   0  0  0  0  0  0  0  0  0  0  0  0
    2.2745   -1.0170   -0.6159 O   0  0  0  0  0  0  0  0  0  0  0  0
    1.9693    1.1679    0.1209 N   0  0  0  0  0  0  0  0  0  0  0  0
    0.5279    1.2164   -0.1121 C   0  0  0  0  0  0  0  0  0  0  0  0
   -0.1405    0.1802    0.7182 C   0  0  0  0  0  0  0  0  0  0  0  0
   -1.6330    0.2320    0.5189 C   0  0  1  0  0  0  0  0  0  0  0  0
   -1.9827   -0.0179   -0.9051 C   0  0  0  0  0  0  0  0  0  0  0  0
   -3.3575    0.0451   -1.0939 O   0  0  0  0  0  0  0  0  0  0  0  0
   -4.1187   -0.6533   -0.2065 C   0  0  0  0  0  0  0  0  0  0  0  0
   -3.6071   -0.5859    1.2145 C   0  0  0  0  0  0  0  0  0  0  0  0
   -2.2518   -0.7596    1.3006 O   0  0  0  0  0  0  0  0  0  0  0  0
    5.1722   -1.6628    0.6283 H   0  0  0  0  0  0  0  0  0  0  0  0
    5.5398   -1.1189   -0.9851 H   0  0  0  0  0  0  0  0  0  0  0  0
    4.3796    0.2769    1.2096 H   0  0  0  0  0  0  0  0  0  0  0  0
    4.6649    0.9225   -0.4530 H   0  0  0  0  0  0  0  0  0  0  0  0
    2.4706    2.0141    0.5127 H   0  0  0  0  0  0  0  0  0  0  0  0
    0.3293    1.0415   -1.1975 H   0  0  0  0  0  0  0  0  0  0  0  0
    0.1711    2.2327    0.1201 H   0  0  0  0  0  0  0  0  0  0  0  0
    0.1164    0.2707    1.8072 H   0  0  0  0  0  0  0  0  0  0  0  0
    0.2476   -0.8339    0.4420 H   0  0  0  0  0  0  0  0  0  0  0  0
   -2.0407    1.2312    0.7987 H   0  0  0  0  0  0  0  0  0  0  0  0
   -1.5284   -0.9464   -1.2613 H   0  0  0  0  0  0  0  0  0  0  0  0
   -1.5761    0.8080   -1.5493 H   0  0  0  0  0  0  0  0  0  0  0  0
   -5.1404   -0.1722   -0.1827 H   0  0  0  0  0  0  0  0  0  0  0  0
   -4.2990   -1.7181   -0.4895 H   0  0  0  0  0  0  0  0  0  0  0  0
   -3.9432    0.3450    1.7312 H   0  0  0  0  0  0  0  0  0  0  0  0
   -4.1007   -1.4210    1.7698 H   0  0  0  0  0  0  0  0  0  0  0  0
  1  2  1  0
  2  3  1  0
  3  4  2  0
  3  5  1  0
  5  6  1  0
  6  7  1  0
  7  8  1  0
  8  9  1  0
  9 10  1  0
 10 11  1  0
 11 12  1  0
 12 13  1  0
 13  8  1  0
  1 14  1  0
  1 15  1  0
  2 16  1  0
  2 17  1  0
  5 18  1  0
  6 19  1  0
  6 20  1  0
  7 21  1  0
  7 22  1  0
  8 23  1  1
  9 24  1  0
  9 25  1  0
 11 26  1  0
 11 27  1  0
 12 28  1  0
 12 29  1  0
M  END
$$$$

     RDKit          3D

 29 29  0  0  0  0  0  0  0  0999 V2000
    4.6987    0.1124   -0.7413 N   0  0  0  0  0  0  0  0  0  0  0  0
    4.2684   -0.9318    0.1651 C   0  0  0  0  0  0  0  0  0  0  0  0
    2.8487   -0.7048    0.6004 C   0  0  0  0  0  0  0  0  0  0  0  0
    2.2807   -1.5043    1.3941 O   0  0  0  0  0  0  0  0  0  0  0  0
    2.0812    0.4082    0.1467 N   0  0  0  0  0  0  0  0  0  0  0  0
    0.7219    0.6417    0.5509 C   0  0  0  0  0  0  0  0  0  0  0  0
   -0.2300   -0.4749    0.1755 C   0  0  0  0  0  0  0  0  0  0  0  0
   -1.6225   -0.0855    0.6636 C   0  0  1  0  0  0  0  0  0  0  0  0
   -2.0347    1.1871    0.0119 C   0  0  0  0  0  0  0  0  0  0  0  0
   -3.3823    1.4403    0.0223 O   0  0  0  0  0  0  0  0  0  0  0  0
   -4.1863    0.3363   -0.1076 C   0  0  0  0  0  0  0  0  0  0  0  0
   -3.3286   -0.8298   -0.5823 C   0  0  0  0  0  0  0  0  0  0  0  0
   -2.4767   -1.1401    0.4853 O   0  0  0  0  0  0  0  0  0  0  0  0
    4.5904    1.0259   -0.2498 H   0  0  0  0  0  0  0  0  0  0  0  0
    4.0492    0.1287   -1.5569 H   0  0  0  0  0  0  0  0  0  0  0  0
    4.8779   -0.8397    1.0986 H   0  0  0  0  0  0  0  0  0  0  0  0
    4.4099   -1.9219   -0.2891 H   0  0  0  0  0  0  0  0  0  0  0  0
    2.5748    1.0741   -0.5219 H   0  0  0  0  0  0  0  0  0  0  0  0
    0.3767    1.5769    0.0638 H   0  0  0  0  0  0  0  0  0  0  0  0
    0.6403    0.8509    1.6544 H   0  0  0  0  0  0  0  0  0  0  0  0
   -0.2001   -0.7155   -0.8884 H   0  0  0  0  0  0  0  0  0  0  0  0
    0.0546   -1.3802    0.7476 H   0  0  0  0  0  0  0  0  0  0  0  0
   -1.5330    0.0995    1.7580 H   0  0  0  0  0  0  0  0  0  0  0  0
   -1.5434    2.0280    0.5843 H   0  0  0  0  0  0  0  0  0  0  0  0
   -1.6180    1.2953   -1.0275 H   0  0  0  0  0  0  0  0  0  0  0  0
   -4.5571    0.0627    0.9237 H   0  0  0  0  0  0  0  0  0  0  0  0
   -5.0733    0.4880   -0.7536 H   0  0  0  0  0  0  0  0  0  0  0  0
   -2.7032   -0.5280   -1.4256 H   0  0  0  0  0  0  0  0  0  0  0  0
   -3.9842   -1.6995   -0.8135 H   0  0  0  0  0  0  0  0  0  0  0  0
  1  2  1  0
  2  3  1  0
  3  4  2  0
  3  5  1  0
  5  6  1  0
  6  7  1  0
  7  8  1  0
  8  9  1  0
  9 10  1  0
 10 11  1  0
 11 12  1  0
 12 13  1  0
 13  8  1  0
  1 14  1  0
  1 15  1  0
  2 16  1  0
  2 17  1  0
  5 18  1  0
  6 19  1  0
  6 20  1  0
  7 21  1  0
  7 22  1  0
  8 23  1  1
  9 24  1  0
  9 25  1  0
 11 26  1  0
 11 27  1  0
 12 28  1  0
 12 29  1  0
M  END
$$$$

     RDKit          3D

 29 29  0  0  0  0  0  0  0  0999 V2000
    5.3199    0.6526   -0.6724 N   0  0  0  0  0  0  0  0  0  0  0  0
    4.3412    0.2933    0.3091 C   0  0  0  0  0  0  0  0  0  0  0  0
    2.9610    0.3372   -0.2499 C   0  0  0  0  0  0  0  0  0  0  0  0
    2.7716    0.6592   -1.4420 O   0  0  0  0  0  0  0  0  0  0  0  0
    1.8685    0.0061    0.5987 N   0  0  0  0  0  0  0  0  0  0  0  0
    0.5291    0.0575    0.0251 C   0  0  0  0  0  0  0  0  0  0  0  0
   -0.4267   -0.3350    1.1310 C   0  0  0  0  0  0  0  0  0  0  0  0
   -1.8651   -0.3238    0.6701 C   0  0  1  0  0  0  0  0  0  0  0  0
   -2.2770    1.0531    0.1905 C   0  0  0  0  0  0  0  0  0  0  0  0
   -3.6879    1.0523    0.1432 O   0  0  0  0  0  0  0  0  0  0  0  0
   -4.1498   -0.1792   -0.2892 C   0  0  0  0  0  0  0  0  0  0  0  0
   -3.0932   -0.8458   -1.1427 C   0  0  0  0  0  0  0  0  0  0  0  0
   -1.9720   -1.1937   -0.4250 O   0  0  0  0  0  0  0  0  0  0  0  0
    4.9615    0.4458   -1.6233 H   0  0  0  0  0  0  0  0  0  0  0  0
    5.6444    1.6297   -0.6340 H   0  0  0  0  0  0  0  0  0  0  0  0
    4.5322   -0.7463    0.6340 H   0  0  0  0  0  0  0  0  0  0  0  0
    4.3675    1.0112    1.1608 H   0  0  0  0  0  0  0  0  0  0  0  0
    2.0640   -0.2559    1.5805 H   0  0  0  0  0  0  0  0  0  0  0  0
    0.4258   -0.6227   -0.8267 H   0  0  0  0  0  0  0  0  0  0  0  0
    0.2739    1.0856   -0.3144 H   0  0  0  0  0  0  0  0  0  0  0  0
   -0.3066    0.3985    1.9506 H   0  0  0  0  0  0  0  0  0  0  0  0
   -0.1931   -1.3507    1.4727 H   0  0  0  0  0  0  0  0  0  0  0  0
   -2.4895   -0.6376    1.5191 H   0  0  0  0  0  0  0  0  0  0  0  0
   -1.8539    1.2910   -0.7895 H   0  0  0  0  0  0  0  0  0  0  0  0
   -1.9728    1.8428    0.9105 H   0  0  0  0  0  0  0  0  0  0  0  0
   -4.3710   -0.8645    0.5518 H   0  0  0  0  0  0  0  0  0  0  0  0
   -5.0528   -0.0644   -0.8965 H   0  0  0  0  0  0  0  0  0  0  0  0
   -3.5488   -1.7237   -1.6132 H   0  0  0  0  0  0  0  0  0  0  0  0
   -2.8002   -0.1181   -1.9290 H   0  0  0  0  0  0  0  0  0  0  0  0
  1  2  1  0
  2  3  1  0
  3  4  2  0
  3  5  1  0
  5  6  1  0
  6  7  1  0
  7  8  1  0
  8  9  1  0
  9 10  1  0
 10 11  1  0
 11 12  1  0
 12 13  1  0
 13  8  1  0
  1 14  1  0
  1 15  1  0
  2 16  1  0
  2 17  1  0
  5 18  1  0
  6 19  1  0
  6 20  1  0
  7 21  1  0
  7 22  1  0
  8 23  1  1
  9 24  1  0
  9 25  1  0
 11 26  1  0
 11 27  1  0
 12 28  1  0
 12 29  1  0
M  END
$$$$
