
     RDKit          3D

 20 20  0  0  0  0  0  0  0  0999 V2000
   -1.4779   -1.5928    0.2582 C   0  0  0  0  0  0  0  0  0  0  0  0
   -1.1229   -0.1489    0.4517 C   0  0  2  0  0  0  0  0  0  0  0  0
   -1.3915    0.6766   -0.6859 N   0  0  0  0  0  0  0  0  0  0  0  0
   -0.5779    1.8540   -0.5022 C   0  0  0  0  0  0  0  0  0  0  0  0
   -0.6716    2.9461   -1.1228 O   0  0  0  0  0  0  0  0  0  0  0  0
    0.4019    1.5653    0.5525 C   0  0  0  0  0  0  0  0  0  0  0  0
    1.1053    2.3521    1.2163 O   0  0  0  0  0  0  0  0  0  0  0  0
    0.3610    0.0605    0.6510 C   0  0  2  0  0  0  0  0  0  0  0  0
    1.1291   -0.4498   -0.5493 C   0  0  0  0  0  0  0  0  0  0  0  0
    2.5545   -0.2662   -0.3939 N   0  0  0  0  0  0  0  0  0  0  0  0
   -1.1203   -2.1378    1.1668 H   0  0  0  0  0  0  0  0  0  0  0  0
   -2.5942   -1.6565    0.2978 H   0  0  0  0  0  0  0  0  0  0  0  0
   -1.0676   -2.0423   -0.6544 H   0  0  0  0  0  0  0  0  0  0  0  0
   -1.6862    0.2360    1.3039 H   0  0  0  0  0  0  0  0  0  0  0  0
   -2.0101    0.5483   -1.5059 H   0  0  0  0  0  0  0  0  0  0  0  0
    0.7464   -0.2952    1.5988 H   0  0  0  0  0  0  0  0  0  0  0  0
    0.8424    0.0823   -1.4794 H   0  0  0  0  0  0  0  0  0  0  0  0
    0.9034   -1.5203   -0.7279 H   0  0  0  0  0  0  0  0  0  0  0  0
    2.8694   -0.9254    0.3485 H   0  0  0  0  0  0  0  0  0  0  0  0
    2.8071    0.7140   -0.2237 H   0  0  0  0  0  0  0  0  0  0  0  0
  1  2  1  0
  2  3  1  0
  3  4  1  0
  4  5  2  0
  4  6  1  0
  6  7  2  0
  6  8  1  0
  8  9  1  0
  9 10  1  0
  8  2  1  0
  1 11  1  0
  1 12  1  0
  1 13  1  0
  2 14  1  1
  3 15  1  0
  8 16  1  1
  9 17  1  0
  9 18  1  0
 10 19  1  0
 10 20  1  0
M  END
$$$$

     RDKit          3D

 20 20  0  0  0  0  0  0  0  0999 V2000
   -1.0530   -1.7458   -0.6153 C   0  0  0  0  0  0  0  0  0  0  0  0
   -1.0338   -0.5840    0.3354 C   0  0  2  0  0  0  0  0  0  0  0  0
   -1.7003    0.5887   -0.1894 N   0  0  0  0  0  0  0  0  0  0  0  0
   -1.1731    1.6932    0.5355 C   0  0  0  0  0  0  0  0  0  0  0  0
   -1.6926    2.8375    0.5933 O   0  0  0  0  0  0  0  0  0  0  0  0
    0.0640    1.2725    1.1949 C   0  0  0  0  0  0  0  0  0  0  0  0
    0.7074    1.9721    2.0144 O   0  0  0  0  0  0  0  0  0  0  0  0
    0.3299   -0.0945    0.6741 C   0  0  2  0  0  0  0  0  0  0  0  0
    1.2300    0.0431   -0.5320 C   0  0  0  0  0  0  0  0  0  0  0  0
    2.5463    0.5222   -0.1541 N   0  0  0  0  0  0  0  0  0  0  0  0
   -1.8175   -2.4761   -0.2177 H   0  0  0  0  0  0  0  0  0  0  0  0
   -0.1033   -2.2645   -0.7238 H   0  0  0  0  0  0  0  0  0  0  0  0
   -1.4708   -1.3894   -1.5870 H   0  0  0  0  0  0  0  0  0  0  0  0
   -1.5513   -0.8271    1.2983 H   0  0  0  0  0  0  0  0  0  0  0  0
   -2.4169    0.5878   -0.9461 H   0  0  0  0  0  0  0  0  0  0  0  0
    0.8566   -0.7159    1.4232 H   0  0  0  0  0  0  0  0  0  0  0  0
    0.8207    0.8050   -1.2496 H   0  0  0  0  0  0  0  0  0  0  0  0
    1.3544   -0.8866   -1.0980 H   0  0  0  0  0  0  0  0  0  0  0  0
    3.0888   -0.2704    0.2385 H   0  0  0  0  0  0  0  0  0  0  0  0
    3.0146    0.9323   -0.9946 H   0  0  0  0  0  0  0  0  0  0  0  0
  1  2  1  0
  2  3  1  0
  3  4  1  0
  4  5  2  0
  4  6  1  0
  6  7  2  0
  6  8  1  0
  8  9  1  0
  9 10  1  0
  8  2  1  0
  1 11  1  0
  1 12  1  0
  1 13  1  0
  2 14  1  1
  3 15  1  0
  8 16  1  1
  9 17  1  0
  9 18  1  0
 10 19  1  0
 10 20  1  0
M  END
$$$$

     RDKit          3D

 20 20  0  0  0  0  0  0  0  0999 V2000
   -0.8146   -2.0602    0.0904 C   0  0  0  0  0  0  0  0  0  0  0  0
   -1.0422   -0.6077    0.3820 C   0  0  2  0  0  0  0  0  0  0  0  0
   -1.5315    0.1392   -0.7460 N   0  0  0  0  0  0  0  0  0  0  0  0
   -1.3073    1.5207   -0.4012 C   0  0  0  0  0  0  0  0  0  0  0  0
   -1.8973    2.5254   -0.8822 O   0  0  0  0  0  0  0  0  0  0  0  0
   -0.2618    1.5477    0.6172 C   0  0  0  0  0  0  0  0  0  0  0  0
    0.1737    2.5064    1.2845 O   0  0  0  0  0  0  0  0  0  0  0  0
    0.2205    0.1377    0.7221 C   0  0  2  0  0  0  0  0  0  0  0  0
    1.2826   -0.0202   -0.3463 C   0  0  0  0  0  0  0  0  0  0  0  0
    2.4451    0.7512    0.1144 N   0  0  0  0  0  0  0  0  0  0  0  0
   -0.2841   -2.4965    0.9581 H   0  0  0  0  0  0  0  0  0  0  0  0
   -1.8092   -2.5445    0.0183 H   0  0  0  0  0  0  0  0  0  0  0  0
   -0.2244   -2.2268   -0.8092 H   0  0  0  0  0  0  0  0  0  0  0  0
   -1.7343   -0.5033    1.2259 H   0  0  0  0  0  0  0  0  0  0  0  0
   -1.9609   -0.1695   -1.6398 H   0  0  0  0  0  0  0  0  0  0  0  0
    0.5930   -0.0979    1.7196 H   0  0  0  0  0  0  0  0  0  0  0  0
    0.9754    0.4580   -1.2972 H   0  0  0  0  0  0  0  0  0  0  0  0
    1.5650   -1.0555   -0.5393 H   0  0  0  0  0  0  0  0  0  0  0  0
    2.2961    1.7779   -0.1064 H   0  0  0  0  0  0  0  0  0  0  0  0
    3.3160    0.4177   -0.3648 H   0  0  0  0  0  0  0  0  0  0  0  0
  1  2  1  0
  2  3  1  0
  3  4  1  0
  4  5  2  0
  4  6  1  0
  6  7  2  0
  6  8  1  0
  8  9  1  0
  9 10  1  0
  8  2  1  0
  1 11  1  0
  1 12  1  0
  1 13  1  0
  2 14  1  1
  3 15  1  0
  8 16  1  1
  9 17  1  0
  9 18  1  0
 10 19  1  0
 10 20  1  0
M  END
$$$$

     RDKit          3D

 20 20  0  0  0  0  0  0  0  0999 V2000
   -0.6727   -1.5892   -0.2137 C   0  0  0  0  0  0  0  0  0  0  0  0
   -0.7042   -0.3521    0.6139 C   0  0  2  0  0  0  0  0  0  0  0  0
   -1.9919    0.3040    0.3750 N   0  0  0  0  0  0  0  0  0  0  0  0
   -1.8072    1.5139   -0.3298 C   0  0  0  0  0  0  0  0  0  0  0  0
   -2.7263    2.3176   -0.6593 O   0  0  0  0  0  0  0  0  0  0  0  0
   -0.3874    1.6688   -0.6059 C   0  0  0  0  0  0  0  0  0  0  0  0
    0.1593    2.4578   -1.4065 O   0  0  0  0  0  0  0  0  0  0  0  0
    0.3131    0.6738    0.2780 C   0  0  2  0  0  0  0  0  0  0  0  0
    1.5338    0.1621   -0.4180 C   0  0  0  0  0  0  0  0  0  0  0  0
    2.1900   -0.8130    0.4335 N   0  0  0  0  0  0  0  0  0  0  0  0
   -1.2889   -2.3608    0.3006 H   0  0  0  0  0  0  0  0  0  0  0  0
    0.3095   -2.0179   -0.3890 H   0  0  0  0  0  0  0  0  0  0  0  0
   -1.1678   -1.4227   -1.2128 H   0  0  0  0  0  0  0  0  0  0  0  0
   -0.6739   -0.5771    1.7004 H   0  0  0  0  0  0  0  0  0  0  0  0
   -2.9101   -0.0758    0.6852 H   0  0  0  0  0  0  0  0  0  0  0  0
    0.6413    1.2446    1.1706 H   0  0  0  0  0  0  0  0  0  0  0  0
    2.2410    1.0119   -0.5231 H   0  0  0  0  0  0  0  0  0  0  0  0
    1.3473   -0.2193   -1.4371 H   0  0  0  0  0  0  0  0  0  0  0  0
    2.9420   -0.3502    1.0237 H   0  0  0  0  0  0  0  0  0  0  0  0
    2.6532   -1.5763   -0.1032 H   0  0  0  0  0  0  0  0  0  0  0  0
  1  2  1  0
  2  3  1  0
  3  4  1  0
  4  5  2  0
  4  6  1  0
  6  7  2  0
  6  8  1  0
  8  9  1  0
  9 10  1  0
  8  2  1  0
  1 11  1  0
  1 12  1  0
  1 13  1  0
  2 14  1  1
  3 15  1  0
  8 16  1  1
  9 17  1  0
  9 18  1  0
 10 19  1  0
 10 20  1  0
M  END
$$$$

     RDKit          3D

 20 20  0  0  0  0  0  0  0  0999 V2000
   -1.6799   -1.3691   -0.3232 C   0  0  0  0  0  0  0  0  0  0  0  0
   -1.1494   -0.1421    0.2948 C   0  0  2  0  0  0  0  0  0  0  0  0
   -1.2597    1.0482   -0.5162 N   0  0  0  0  0  0  0  0  0  0  0  0
   -0.3928    2.0022    0.1355 C   0  0  0  0  0  0  0  0  0  0  0  0
   -0.4198    3.2551    0.0304 O   0  0  0  0  0  0  0  0  0  0  0  0
    0.5512    1.2572    0.9632 C   0  0  0  0  0  0  0  0  0  0  0  0
    1.3646    1.7348    1.7943 O   0  0  0  0  0  0  0  0  0  0  0  0
    0.3271   -0.1696    0.5975 C   0  0  2  0  0  0  0  0  0  0  0  0
    1.1540   -0.4113   -0.6585 C   0  0  0  0  0  0  0  0  0  0  0  0
    2.5416   -0.4187   -0.2577 N   0  0  0  0  0  0  0  0  0  0  0  0
   -2.6716   -1.1396   -0.7809 H   0  0  0  0  0  0  0  0  0  0  0  0
   -1.9104   -2.1046    0.5023 H   0  0  0  0  0  0  0  0  0  0  0  0
   -1.0557   -1.8650   -1.0626 H   0  0  0  0  0  0  0  0  0  0  0  0
   -1.6715    0.0554    1.2479 H   0  0  0  0  0  0  0  0  0  0  0  0
   -1.7946    1.2644   -1.3651 H   0  0  0  0  0  0  0  0  0  0  0  0
    0.5907   -0.8583    1.4052 H   0  0  0  0  0  0  0  0  0  0  0  0
    1.0004    0.4581   -1.3447 H   0  0  0  0  0  0  0  0  0  0  0  0
    0.9139   -1.3435   -1.1623 H   0  0  0  0  0  0  0  0  0  0  0  0
    2.6541    0.1346    0.6193 H   0  0  0  0  0  0  0  0  0  0  0  0
    2.9079   -1.3880   -0.1191 H   0  0  0  0  0  0  0  0  0  0  0  0
  1  2  1  0
  2  3  1  0
  3  4  1  0
  4  5  2  0
  4  6  1  0
  6  7  2  0
  6  8  1  0
  8  9  1  0
  9 10  1  0
  8  2  1  0
  1 11  1  0
  1 12  1  0
  1 13  1  0
  2 14  1  1
  3 15  1  0
  8 16  1  1
  9 17  1  0
  9 18  1  0
 10 19  1  0
 10 20  1  0
M  END
$$$$

     RDKit          3D

 20 20  0  0  0  0  0  0  0  0999 V2000
   -1.4412   -0.9060   -0.8216 C   0  0  0  0  0  0  0  0  0  0  0  0
   -0.9483   -0.5537    0.5492 C   0  0  2  0  0  0  0  0  0  0  0  0
   -1.7362    0.5410    1.0830 N   0  0  0  0  0  0  0  0  0  0  0  0
   -1.1245    1.7514    0.5842 C   0  0  0  0  0  0  0  0  0  0  0  0
   -1.7095    2.8582    0.4776 O   0  0  0  0  0  0  0  0  0  0  0  0
    0.2499    1.4296    0.2475 C   0  0  0  0  0  0  0  0  0  0  0  0
    1.0887    2.2137   -0.2152 O   0  0  0  0  0  0  0  0  0  0  0  0
    0.4432    0.0047    0.5620 C   0  0  2  0  0  0  0  0  0  0  0  0
    1.3606   -0.6870   -0.4195 C   0  0  0  0  0  0  0  0  0  0  0  0
    2.6483   -0.0901   -0.3325 N   0  0  0  0  0  0  0  0  0  0  0  0
   -0.8314   -1.7357   -1.2478 H   0  0  0  0  0  0  0  0  0  0  0  0
   -2.4884   -1.2558   -0.7195 H   0  0  0  0  0  0  0  0  0  0  0  0
   -1.4029   -0.0683   -1.5271 H   0  0  0  0  0  0  0  0  0  0  0  0
   -1.0481   -1.4663    1.1874 H   0  0  0  0  0  0  0  0  0  0  0  0
   -2.5735    0.4910    1.7000 H   0  0  0  0  0  0  0  0  0  0  0  0
    0.8278   -0.0829    1.5962 H   0  0  0  0  0  0  0  0  0  0  0  0
    0.9746   -0.5220   -1.4468 H   0  0  0  0  0  0  0  0  0  0  0  0
    1.4236   -1.7530   -0.1926 H   0  0  0  0  0  0  0  0  0  0  0  0
    3.3875   -0.4942   -0.8905 H   0  0  0  0  0  0  0  0  0  0  0  0
    2.8997    0.3253    0.5707 H   0  0  0  0  0  0  0  0  0  0  0  0
  1  2  1  0
  2  3  1  0
  3  4  1  0
  4  5  2  0
  4  6  1  0
  6  7  2  0
  6  8  1  0
  8  9  1  0
  9 10  1  0
  8  2  1  0
  1 11  1  0
  1 12  1  0
  1 13  1  0
  2 14  1  1
  3 15  1  0
  8 16  1  1
  9 17  1  0
  9 18  1  0
 10 19  1  0
 10 20  1  0
M  END
$$$$

     RDKit          3D

 20 20  0  0  0  0  0  0  0  0999 V2000
   -1.4669   -0.9259   -0.8665 C   0  0  0  0  0  0  0  0  0  0  0  0
   -0.9202   -0.5999    0.4755 C   0  0  2  0  0  0  0  0  0  0  0  0
   -1.7335    0.4838    1.0386 N   0  0  0  0  0  0  0  0  0  0  0  0
   -1.1896    1.7215    0.5680 C   0  0  0  0  0  0  0  0  0  0  0  0
   -1.7293    2.8606    0.5980 O   0  0  0  0  0  0  0  0  0  0  0  0
    0.1491    1.4115    0.0292 C   0  0  0  0  0  0  0  0  0  0  0  0
    0.8408    2.2058   -0.6541 O   0  0  0  0  0  0  0  0  0  0  0  0
    0.4307    0.0345    0.4723 C   0  0  2  0  0  0  0  0  0  0  0  0
    1.4445   -0.6687   -0.3750 C   0  0  0  0  0  0  0  0  0  0  0  0
    2.6974    0.0570   -0.2794 N   0  0  0  0  0  0  0  0  0  0  0  0
   -2.5530   -0.6340   -0.9444 H   0  0  0  0  0  0  0  0  0  0  0  0
   -1.4819   -2.0421   -1.0409 H   0  0  0  0  0  0  0  0  0  0  0  0
   -0.9479   -0.4714   -1.7155 H   0  0  0  0  0  0  0  0  0  0  0  0
   -0.9336   -1.4624    1.1751 H   0  0  0  0  0  0  0  0  0  0  0  0
   -2.5616    0.4122    1.6683 H   0  0  0  0  0  0  0  0  0  0  0  0
    0.7886    0.0719    1.5285 H   0  0  0  0  0  0  0  0  0  0  0  0
    1.6203   -1.7016   -0.0856 H   0  0  0  0  0  0  0  0  0  0  0  0
    1.1285   -0.5954   -1.4477 H   0  0  0  0  0  0  0  0  0  0  0  0
    2.9681    0.1841    0.7214 H   0  0  0  0  0  0  0  0  0  0  0  0
    3.4497   -0.3415   -0.8656 H   0  0  0  0  0  0  0  0  0  0  0  0
  1  2  1  0
  2  3  1  0
  3  4  1  0
  4  5  2  0
  4  6  1  0
  6  7  2  0
  6  8  1  0
  8  9  1  0
  9 10  1  0
  8  2  1  0
  1 11  1  0
  1 12  1  0
  1 13  1  0
  2 14  1  1
  3 15  1  0
  8 16  1  1
  9 17  1  0
  9 18  1  0
 10 19  1  0
 10 20  1  0
M  END
$$$$

     RDKit          3D

 20 20  0  0  0  0  0  0  0  0999 V2000
   -0.9540   -1.2769    0.6071 C   0  0  0  0  0  0  0  0  0  0  0  0
   -0.1994   -0.0123    0.8639 C   0  0  2  0  0  0  0  0  0  0  0  0
   -1.2062    1.0279    1.1373 N   0  0  0  0  0  0  0  0  0  0  0  0
   -1.6824    1.4290   -0.1534 C   0  0  0  0  0  0  0  0  0  0  0  0
   -2.7666    2.0186   -0.4029 O   0  0  0  0  0  0  0  0  0  0  0  0
   -0.6779    1.0305   -1.1495 C   0  0  0  0  0  0  0  0  0  0  0  0
   -0.7467    1.0613   -2.4006 O   0  0  0  0  0  0  0  0  0  0  0  0
    0.4836    0.5647   -0.3320 C   0  0  2  0  0  0  0  0  0  0  0  0
    1.3581   -0.3941   -1.0771 C   0  0  0  0  0  0  0  0  0  0  0  0
    2.3839   -0.8592   -0.1626 N   0  0  0  0  0  0  0  0  0  0  0  0
   -2.0449   -1.0958    0.4158 H   0  0  0  0  0  0  0  0  0  0  0  0
   -0.5807   -1.8921   -0.2108 H   0  0  0  0  0  0  0  0  0  0  0  0
   -0.9319   -1.8776    1.5570 H   0  0  0  0  0  0  0  0  0  0  0  0
    0.4790   -0.0998    1.7372 H   0  0  0  0  0  0  0  0  0  0  0  0
   -1.5043    1.3899    2.0638 H   0  0  0  0  0  0  0  0  0  0  0  0
    1.0248    1.4666   -0.0207 H   0  0  0  0  0  0  0  0  0  0  0  0
    1.8799    0.1759   -1.8706 H   0  0  0  0  0  0  0  0  0  0  0  0
    0.8381   -1.2364   -1.5177 H   0  0  0  0  0  0  0  0  0  0  0  0
    1.9810   -1.3942    0.6385 H   0  0  0  0  0  0  0  0  0  0  0  0
    2.8665   -0.0260    0.2772 H   0  0  0  0  0  0  0  0  0  0  0  0
  1  2  1  0
  2  3  1  0
  3  4  1  0
  4  5  2  0
  4  6  1  0
  6  7  2  0
  6  8  1  0
  8  9  1  0
  9 10  1  0
  8  2  1  0
  1 11  1  0
  1 12  1  0
  1 13  1  0
  2 14  1  1
  3 15  1  0
  8 16  1  1
  9 17  1  0
  9 18  1  0
 10 19  1  0
 10 20  1  0
M  END
$$$$
