
     RDKit          3D

 21 22  0  0  0  0  0  0  0  0999 V2000
   -0.0596   -2.3111   -0.2456 O   0  0  0  0  0  0  0  0  0  0  0  0
   -0.4542   -1.1898   -0.0995 C   0  0  0  0  0  0  0  0  0  0  0  0
   -1.8732   -0.9474    0.2861 C   0  0  0  0  0  0  0  0  0  0  0  0
   -2.3370    0.4331   -0.1164 C   0  0  0  0  0  0  0  0  0  0  0  0
   -1.4433    1.4763    0.2647 N   0  0  0  0  0  0  0  0  0  0  0  0
   -0.1747    1.0287    0.7656 C   0  0  0  0  0  0  0  0  0  0  0  0
    0.3755    0.0414   -0.2744 C   0  0  1  0  0  0  0  0  0  0  0  0
    1.8013   -0.2075   -0.0852 C   0  0  0  0  0  0  0  0  0  0  0  0
    2.3807   -0.6966    1.0218 N   0  0  0  0  0  0  0  0  0  0  0  0
    3.6894   -0.7762    0.8000 N   0  0  0  0  0  0  0  0  0  0  0  0
    3.9517   -0.3552   -0.4046 N   0  0  0  0  0  0  0  0  0  0  0  0
    2.7939   -0.0019   -0.9595 N   0  0  0  0  0  0  0  0  0  0  0  0
   -2.0490   -1.1471    1.3657 H   0  0  0  0  0  0  0  0  0  0  0  0
   -2.4887   -1.6699   -0.2980 H   0  0  0  0  0  0  0  0  0  0  0  0
   -3.3128    0.6058    0.3941 H   0  0  0  0  0  0  0  0  0  0  0  0
   -2.5539    0.4406   -1.2173 H   0  0  0  0  0  0  0  0  0  0  0  0
   -1.2565    2.0895   -0.5591 H   0  0  0  0  0  0  0  0  0  0  0  0
   -0.3574    0.4975    1.7192 H   0  0  0  0  0  0  0  0  0  0  0  0
    0.5102    1.8710    0.8435 H   0  0  0  0  0  0  0  0  0  0  0  0
    0.1225    0.4481   -1.2712 H   0  0  0  0  0  0  0  0  0  0  0  0
    2.7350    0.3708   -1.9297 H   0  0  0  0  0  0  0  0  0  0  0  0
  1  2  2  0
  2  3  1  0
  3  4  1  0
  4  5  1  0
  5  6  1  0
  6  7  1  0
  7  8  1  0
  8  9  2  0
  9 10  1  0
 10 11  2  0
 11 12  1  0
  7  2  1  0
 12  8  1  0
  3 13  1  0
  3 14  1  0
  4 15  1  0
  4 16  1  0
  5 17  1  0
  6 18  1  0
  6 19  1  0
  7 20  1  6
 12 21  1  0
M  END
$$$$

     RDKit          3D

 21 22  0  0  0  0  0  0  0  0999 V2000
   -0.7405    1.5343   -2.0918 O   0  0  0  0  0  0  0  0  0  0  0  0
   -0.5550    0.7629   -1.1563 C   0  0  0  0  0  0  0  0  0  0  0  0
   -1.1722   -0.5672   -1.1553 C   0  0  0  0  0  0  0  0  0  0  0  0
   -1.6546   -0.9639    0.1813 C   0  0  0  0  0  0  0  0  0  0  0  0
   -1.5177   -0.0398    1.2187 N   0  0  0  0  0  0  0  0  0  0  0  0
   -0.4000    0.7901    1.3051 C   0  0  0  0  0  0  0  0  0  0  0  0
    0.2956    1.1198    0.0218 C   0  0  1  0  0  0  0  0  0  0  0  0
    1.5886    0.4232   -0.1198 C   0  0  0  0  0  0  0  0  0  0  0  0
    2.7639    1.0437   -0.3873 N   0  0  0  0  0  0  0  0  0  0  0  0
    3.6960    0.1275   -0.4410 N   0  0  0  0  0  0  0  0  0  0  0  0
    3.1644   -1.0707   -0.2167 N   0  0  0  0  0  0  0  0  0  0  0  0
    1.8725   -0.8815   -0.0206 N   0  0  0  0  0  0  0  0  0  0  0  0
   -1.9909   -0.5772   -1.9235 H   0  0  0  0  0  0  0  0  0  0  0  0
   -0.4377   -1.3259   -1.5587 H   0  0  0  0  0  0  0  0  0  0  0  0
   -1.1794   -1.9389    0.4902 H   0  0  0  0  0  0  0  0  0  0  0  0
   -2.7500   -1.2321    0.0880 H   0  0  0  0  0  0  0  0  0  0  0  0
   -2.2920    0.1116    1.8533 H   0  0  0  0  0  0  0  0  0  0  0  0
    0.3424    0.3299    2.0200 H   0  0  0  0  0  0  0  0  0  0  0  0
   -0.6884    1.7503    1.7844 H   0  0  0  0  0  0  0  0  0  0  0  0
    0.4781    2.2259   -0.0728 H   0  0  0  0  0  0  0  0  0  0  0  0
    1.1770   -1.6220    0.1808 H   0  0  0  0  0  0  0  0  0  0  0  0
  1  2  2  0
  2  3  1  0
  3  4  1  0
  4  5  1  0
  5  6  1  0
  6  7  1  0
  7  8  1  0
  8  9  2  0
  9 10  1  0
 10 11  2  0
 11 12  1  0
  7  2  1  0
 12  8  1  0
  3 13  1  0
  3 14  1  0
  4 15  1  0
  4 16  1  0
  5 17  1  0
  6 18  1  0
  6 19  1  0
  7 20  1  1
 12 21  1  0
M  END
$$$$

     RDKit          3D

 21 22  0  0  0  0  0  0  0  0999 V2000
    0.3792    0.6597    2.0510 O   0  0  0  0  0  0  0  0  0  0  0  0
   -0.2243    0.0808    1.1864 C   0  0  0  0  0  0  0  0  0  0  0  0
   -1.6759   -0.2458    1.2500 C   0  0  0  0  0  0  0  0  0  0  0  0
   -2.3801   -0.1871   -0.0360 C   0  0  0  0  0  0  0  0  0  0  0  0
   -1.6402   -0.0928   -1.2238 N   0  0  0  0  0  0  0  0  0  0  0  0
   -0.3194    0.4019   -1.1598 C   0  0  0  0  0  0  0  0  0  0  0  0
    0.4228   -0.3951   -0.0915 C   0  0  1  0  0  0  0  0  0  0  0  0
    1.8593   -0.1713   -0.1103 C   0  0  0  0  0  0  0  0  0  0  0  0
    2.7973   -1.1153   -0.3049 N   0  0  0  0  0  0  0  0  0  0  0  0
    3.9935   -0.5388   -0.2553 N   0  0  0  0  0  0  0  0  0  0  0  0
    3.8426    0.7423   -0.0351 N   0  0  0  0  0  0  0  0  0  0  0  0
    2.5231    0.9750    0.0555 N   0  0  0  0  0  0  0  0  0  0  0  0
   -2.1743    0.3911    2.0288 H   0  0  0  0  0  0  0  0  0  0  0  0
   -1.7146   -1.2862    1.6911 H   0  0  0  0  0  0  0  0  0  0  0  0
   -3.0522   -1.0932   -0.1136 H   0  0  0  0  0  0  0  0  0  0  0  0
   -3.1110    0.6740   -0.0022 H   0  0  0  0  0  0  0  0  0  0  0  0
   -1.6590   -0.9548   -1.8192 H   0  0  0  0  0  0  0  0  0  0  0  0
    0.1867    0.2266   -2.1262 H   0  0  0  0  0  0  0  0  0  0  0  0
   -0.3076    1.4785   -0.9538 H   0  0  0  0  0  0  0  0  0  0  0  0
    0.1398   -1.4546   -0.2581 H   0  0  0  0  0  0  0  0  0  0  0  0
    2.1143    1.9054    0.2272 H   0  0  0  0  0  0  0  0  0  0  0  0
  1  2  2  0
  2  3  1  0
  3  4  1  0
  4  5  1  0
  5  6  1  0
  6  7  1  0
  7  8  1  0
  8  9  2  0
  9 10  1  0
 10 11  2  0
 11 12  1  0
  7  2  1  0
 12  8  1  0
  3 13  1  0
  3 14  1  0
  4 15  1  0
  4 16  1  0
  5 17  1  0
  6 18  1  0
  6 19  1  0
  7 20  1  6
 12 21  1  0
M  END
$$$$

     RDKit          3D

 21 22  0  0  0  0  0  0  0  0999 V2000
   -0.0137   -1.0844    1.8625 O   0  0  0  0  0  0  0  0  0  0  0  0
   -0.4372   -0.8627    0.7558 C   0  0  0  0  0  0  0  0  0  0  0  0
   -1.8960   -0.8528    0.5259 C   0  0  0  0  0  0  0  0  0  0  0  0
   -2.2855    0.5094   -0.0038 C   0  0  0  0  0  0  0  0  0  0  0  0
   -1.1124    1.2182   -0.4625 N   0  0  0  0  0  0  0  0  0  0  0  0
   -0.3561    0.3313   -1.3260 C   0  0  0  0  0  0  0  0  0  0  0  0
    0.4466   -0.5962   -0.3991 C   0  0  1  0  0  0  0  0  0  0  0  0
    1.6703    0.1255   -0.0456 C   0  0  0  0  0  0  0  0  0  0  0  0
    1.8336    1.3029    0.5879 N   0  0  0  0  0  0  0  0  0  0  0  0
    3.1247    1.5513    0.6826 N   0  0  0  0  0  0  0  0  0  0  0  0
    3.7989    0.5680    0.1283 N   0  0  0  0  0  0  0  0  0  0  0  0
    2.9142   -0.3081   -0.3194 N   0  0  0  0  0  0  0  0  0  0  0  0
   -2.4823   -1.1095    1.4239 H   0  0  0  0  0  0  0  0  0  0  0  0
   -2.1193   -1.6059   -0.2829 H   0  0  0  0  0  0  0  0  0  0  0  0
   -2.7609    1.0584    0.8429 H   0  0  0  0  0  0  0  0  0  0  0  0
   -2.9765    0.4022   -0.8454 H   0  0  0  0  0  0  0  0  0  0  0  0
   -0.5202    1.5296    0.3232 H   0  0  0  0  0  0  0  0  0  0  0  0
   -1.0440   -0.2968   -1.9324 H   0  0  0  0  0  0  0  0  0  0  0  0
    0.3817    0.8716   -1.9333 H   0  0  0  0  0  0  0  0  0  0  0  0
    0.6937   -1.5376   -0.9168 H   0  0  0  0  0  0  0  0  0  0  0  0
    3.1403   -1.2145   -0.8180 H   0  0  0  0  0  0  0  0  0  0  0  0
  1  2  2  0
  2  3  1  0
  3  4  1  0
  4  5  1  0
  5  6  1  0
  6  7  1  0
  7  8  1  0
  8  9  2  0
  9 10  1  0
 10 11  2  0
 11 12  1  0
  7  2  1  0
 12  8  1  0
  3 13  1  0
  3 14  1  0
  4 15  1  0
  4 16  1  0
  5 17  1  0
  6 18  1  0
  6 19  1  0
  7 20  1  6
 12 21  1  0
M  END
$$$$

     RDKit          3D

 21 22  0  0  0  0  0  0  0  0999 V2000
   -0.1160    1.0629    1.9927 O   0  0  0  0  0  0  0  0  0  0  0  0
    0.4119    0.7170    0.9764 C   0  0  0  0  0  0  0  0  0  0  0  0
    1.8657    0.7855    0.7946 C   0  0  0  0  0  0  0  0  0  0  0  0
    2.3466    0.0298   -0.4116 C   0  0  0  0  0  0  0  0  0  0  0  0
    1.6027   -1.1170   -0.7519 N   0  0  0  0  0  0  0  0  0  0  0  0
    0.2151   -1.1175   -0.5534 C   0  0  0  0  0  0  0  0  0  0  0  0
   -0.3871    0.2020   -0.1467 C   0  0  1  0  0  0  0  0  0  0  0  0
   -1.8094   -0.0027    0.2181 C   0  0  0  0  0  0  0  0  0  0  0  0
   -2.3009   -0.7612    1.2036 N   0  0  0  0  0  0  0  0  0  0  0  0
   -3.6362   -0.6822    1.2073 N   0  0  0  0  0  0  0  0  0  0  0  0
   -3.9908    0.1253    0.2254 N   0  0  0  0  0  0  0  0  0  0  0  0
   -2.8736    0.5480   -0.3884 N   0  0  0  0  0  0  0  0  0  0  0  0
    2.1201    1.8699    0.6074 H   0  0  0  0  0  0  0  0  0  0  0  0
    2.4263    0.5088    1.7136 H   0  0  0  0  0  0  0  0  0  0  0  0
    3.3968   -0.2756   -0.1952 H   0  0  0  0  0  0  0  0  0  0  0  0
    2.4279    0.6991   -1.3181 H   0  0  0  0  0  0  0  0  0  0  0  0
    1.8103   -1.3697   -1.7523 H   0  0  0  0  0  0  0  0  0  0  0  0
   -0.3637   -1.4561   -1.4601 H   0  0  0  0  0  0  0  0  0  0  0  0
   -0.0461   -1.8453    0.2468 H   0  0  0  0  0  0  0  0  0  0  0  0
   -0.2794    0.8919   -1.0172 H   0  0  0  0  0  0  0  0  0  0  0  0
   -2.8203    1.1871   -1.1911 H   0  0  0  0  0  0  0  0  0  0  0  0
  1  2  2  0
  2  3  1  0
  3  4  1  0
  4  5  1  0
  5  6  1  0
  6  7  1  0
  7  8  1  0
  8  9  2  0
  9 10  1  0
 10 11  2  0
 11 12  1  0
  7  2  1  0
 12  8  1  0
  3 13  1  0
  3 14  1  0
  4 15  1  0
  4 16  1  0
  5 17  1  0
  6 18  1  0
  6 19  1  0
  7 20  1  6
 12 21  1  0
M  END
$$$$

     RDKit          3D

 21 22  0  0  0  0  0  0  0  0999 V2000
    0.4209    1.2788   -1.6676 O   0  0  0  0  0  0  0  0  0  0  0  0
   -0.2439    0.8826   -0.7518 C   0  0  0  0  0  0  0  0  0  0  0  0
   -1.7278    0.9893   -0.6786 C   0  0  0  0  0  0  0  0  0  0  0  0
   -2.3877   -0.2224   -0.1251 C   0  0  0  0  0  0  0  0  0  0  0  0
   -1.6485   -0.8892    0.9113 N   0  0  0  0  0  0  0  0  0  0  0  0
   -0.2673   -1.1386    0.5435 C   0  0  0  0  0  0  0  0  0  0  0  0
    0.3962    0.2191    0.4450 C   0  0  1  0  0  0  0  0  0  0  0  0
    1.8504    0.1528    0.3258 C   0  0  0  0  0  0  0  0  0  0  0  0
    2.7435    0.7190    1.1558 N   0  0  0  0  0  0  0  0  0  0  0  0
    3.9671    0.4301    0.7085 N   0  0  0  0  0  0  0  0  0  0  0  0
    3.8676   -0.2965   -0.3716 N   0  0  0  0  0  0  0  0  0  0  0  0
    2.5589   -0.4731   -0.6158 N   0  0  0  0  0  0  0  0  0  0  0  0
   -2.0996    1.2031   -1.7042 H   0  0  0  0  0  0  0  0  0  0  0  0
   -1.9337    1.9102   -0.0620 H   0  0  0  0  0  0  0  0  0  0  0  0
   -2.6317   -0.9230   -0.9424 H   0  0  0  0  0  0  0  0  0  0  0  0
   -3.3596    0.1013    0.3326 H   0  0  0  0  0  0  0  0  0  0  0  0
   -1.6287   -0.2916    1.7753 H   0  0  0  0  0  0  0  0  0  0  0  0
   -0.2923   -1.6452   -0.4585 H   0  0  0  0  0  0  0  0  0  0  0  0
    0.1994   -1.7955    1.2770 H   0  0  0  0  0  0  0  0  0  0  0  0
    0.0469    0.8040    1.3200 H   0  0  0  0  0  0  0  0  0  0  0  0
    2.1700   -1.0153   -1.4173 H   0  0  0  0  0  0  0  0  0  0  0  0
  1  2  2  0
  2  3  1  0
  3  4  1  0
  4  5  1  0
  5  6  1  0
  6  7  1  0
  7  8  1  0
  8  9  2  0
  9 10  1  0
 10 11  2  0
 11 12  1  0
  7  2  1  0
 12  8  1  0
  3 13  1  0
  3 14  1  0
  4 15  1  0
  4 16  1  0
  5 17  1  0
  6 18  1  0
  6 19  1  0
  7 20  1  1
 12 21  1  0
M  END
$$$$

     RDKit          3D

 21 22  0  0  0  0  0  0  0  0999 V2000
    0.1595    0.8955   -2.0460 O   0  0  0  0  0  0  0  0  0  0  0  0
   -0.3735    0.7210   -0.9645 C   0  0  0  0  0  0  0  0  0  0  0  0
   -1.8579    0.6381   -0.8700 C   0  0  0  0  0  0  0  0  0  0  0  0
   -2.1396   -0.7094   -0.2014 C   0  0  0  0  0  0  0  0  0  0  0  0
   -1.6282   -0.6006    1.1476 N   0  0  0  0  0  0  0  0  0  0  0  0
   -0.1999   -0.5191    1.1840 C   0  0  0  0  0  0  0  0  0  0  0  0
    0.3678    0.5783    0.3206 C   0  0  1  0  0  0  0  0  0  0  0  0
    1.7988    0.3167    0.0919 C   0  0  0  0  0  0  0  0  0  0  0  0
    2.7948    1.1264    0.4872 N   0  0  0  0  0  0  0  0  0  0  0  0
    3.9520    0.6084    0.1309 N   0  0  0  0  0  0  0  0  0  0  0  0
    3.6753   -0.5274   -0.4881 N   0  0  0  0  0  0  0  0  0  0  0  0
    2.3770   -0.7352   -0.5295 N   0  0  0  0  0  0  0  0  0  0  0  0
   -2.1644    1.4532   -0.1567 H   0  0  0  0  0  0  0  0  0  0  0  0
   -2.3646    0.7420   -1.8253 H   0  0  0  0  0  0  0  0  0  0  0  0
   -1.5363   -1.4780   -0.7224 H   0  0  0  0  0  0  0  0  0  0  0  0
   -3.1970   -0.9599   -0.1963 H   0  0  0  0  0  0  0  0  0  0  0  0
   -2.0485    0.2614    1.5646 H   0  0  0  0  0  0  0  0  0  0  0  0
    0.0953   -0.2914    2.2329 H   0  0  0  0  0  0  0  0  0  0  0  0
    0.2159   -1.5172    0.9248 H   0  0  0  0  0  0  0  0  0  0  0  0
    0.2309    1.5339    0.8623 H   0  0  0  0  0  0  0  0  0  0  0  0
    1.8424   -1.5367   -0.9467 H   0  0  0  0  0  0  0  0  0  0  0  0
  1  2  2  0
  2  3  1  0
  3  4  1  0
  4  5  1  0
  5  6  1  0
  6  7  1  0
  7  8  1  0
  8  9  2  0
  9 10  1  0
 10 11  2  0
 11 12  1  0
  7  2  1  0
 12  8  1  0
  3 13  1  0
  3 14  1  0
  4 15  1  0
  4 16  1  0
  5 17  1  0
  6 18  1  0
  6 19  1  0
  7 20  1  1
 12 21  1  0
M  END
$$$$

     RDKit          3D

 21 22  0  0  0  0  0  0  0  0999 V2000
    0.1332    1.0943    1.9349 O   0  0  0  0  0  0  0  0  0  0  0  0
   -0.3310    0.2908    1.1735 C   0  0  0  0  0  0  0  0  0  0  0  0
   -1.7572   -0.1981    1.2517 C   0  0  0  0  0  0  0  0  0  0  0  0
   -2.3957   -0.0236   -0.1202 C   0  0  0  0  0  0  0  0  0  0  0  0
   -1.5911   -0.6401   -1.1444 N   0  0  0  0  0  0  0  0  0  0  0  0
   -0.3181    0.0440   -1.2258 C   0  0  0  0  0  0  0  0  0  0  0  0
    0.4584   -0.3285    0.0433 C   0  0  1  0  0  0  0  0  0  0  0  0
    1.8346    0.1722    0.0040 C   0  0  0  0  0  0  0  0  0  0  0  0
    2.2313    1.4427   -0.1876 N   0  0  0  0  0  0  0  0  0  0  0  0
    3.5735    1.4887   -0.1552 N   0  0  0  0  0  0  0  0  0  0  0  0
    4.0134    0.2735    0.0522 N   0  0  0  0  0  0  0  0  0  0  0  0
    2.9625   -0.5422    0.1516 N   0  0  0  0  0  0  0  0  0  0  0  0
   -1.6912   -1.3041    1.4112 H   0  0  0  0  0  0  0  0  0  0  0  0
   -2.3366    0.3252    2.0099 H   0  0  0  0  0  0  0  0  0  0  0  0
   -2.5491    1.0747   -0.3131 H   0  0  0  0  0  0  0  0  0  0  0  0
   -3.3736   -0.5421   -0.0826 H   0  0  0  0  0  0  0  0  0  0  0  0
   -2.0865   -0.4762   -2.0563 H   0  0  0  0  0  0  0  0  0  0  0  0
   -0.4714    1.1405   -1.1980 H   0  0  0  0  0  0  0  0  0  0  0  0
    0.2879   -0.2905   -2.0845 H   0  0  0  0  0  0  0  0  0  0  0  0
    0.3959   -1.4219    0.2165 H   0  0  0  0  0  0  0  0  0  0  0  0
    3.0110   -1.5791    0.3189 H   0  0  0  0  0  0  0  0  0  0  0  0
  1  2  2  0
  2  3  1  0
  3  4  1  0
  4  5  1  0
  5  6  1  0
  6  7  1  0
  7  8  1  0
  8  9  2  0
  9 10  1  0
 10 11  2  0
 11 12  1  0
  7  2  1  0
 12  8  1  0
  3 13  1  0
  3 14  1  0
  4 15  1  0
  4 16  1  0
  5 17  1  0
  6 18  1  0
  6 19  1  0
  7 20  1  1
 12 21  1  0
M  END
$$$$
