
     RDKit          3D

 26 27  0  0  0  0  0  0  0  0999 V2000
    4.2624    0.5061    0.5661 C   0  0  0  0  0  0  0  0  0  0  0  0
    2.9517    0.2157    0.0441 N   0  0  0  0  0  0  0  0  0  0  0  0
    1.8449    0.4010    0.7365 N   0  0  0  0  0  0  0  0  0  0  0  0
    0.8166    0.0212   -0.0770 C   0  0  0  0  0  0  0  0  0  0  0  0
   -0.5568    0.0353    0.2143 N   0  0  0  0  0  0  0  0  0  0  0  0
   -1.3988    1.1409   -0.1260 C   0  0  0  0  0  0  0  0  0  0  0  0
   -2.7570    0.7783   -0.6224 C   0  0  0  0  0  0  0  0  0  0  0  0
   -3.2128   -0.5335   -0.2959 N   0  0  0  0  0  0  0  0  0  0  0  0
   -2.6349   -1.0674    0.9167 C   0  0  0  0  0  0  0  0  0  0  0  0
   -1.1419   -1.1030    0.8900 C   0  0  0  0  0  0  0  0  0  0  0  0
    1.3368   -0.3845   -1.2447 N   0  0  0  0  0  0  0  0  0  0  0  0
    2.6823   -0.2593   -1.1616 C   0  0  0  0  0  0  0  0  0  0  0  0
    3.4634   -0.5660   -2.1150 O   0  0  0  0  0  0  0  0  0  0  0  0
    4.4213    0.0356    1.5773 H   0  0  0  0  0  0  0  0  0  0  0  0
    5.0753    0.1548   -0.0790 H   0  0  0  0  0  0  0  0  0  0  0  0
    4.3948    1.5956    0.7385 H   0  0  0  0  0  0  0  0  0  0  0  0
   -1.4504    1.8042    0.7654 H   0  0  0  0  0  0  0  0  0  0  0  0
   -0.8844    1.7534   -0.9217 H   0  0  0  0  0  0  0  0  0  0  0  0
   -2.7945    0.8637   -1.7489 H   0  0  0  0  0  0  0  0  0  0  0  0
   -3.4914    1.5574   -0.2659 H   0  0  0  0  0  0  0  0  0  0  0  0
   -4.2504   -0.4723   -0.1253 H   0  0  0  0  0  0  0  0  0  0  0  0
   -2.9980   -2.1256    1.0083 H   0  0  0  0  0  0  0  0  0  0  0  0
   -3.0123   -0.5556    1.8349 H   0  0  0  0  0  0  0  0  0  0  0  0
   -0.7567   -2.0109    0.4122 H   0  0  0  0  0  0  0  0  0  0  0  0
   -0.7394   -1.0496    1.9446 H   0  0  0  0  0  0  0  0  0  0  0  0
    0.8300   -0.7355   -2.0812 H   0  0  0  0  0  0  0  0  0  0  0  0
  1  2  1  0
  2  3  1  0
  3  4  2  0
  4  5  1  0
  5  6  1  0
  6  7  1  0
  7  8  1  0
  8  9  1  0
  9 10  1  0
  4 11  1  0
 11 12  1  0
 12 13  2  0
 12  2  1  0
 10  5  1  0
  1 14  1  0
  1 15  1  0
  1 16  1  0
  6 17  1  0
  6 18  1  0
  7 19  1  0
  7 20  1  0
  8 21  1  0
  9 22  1  0
  9 23  1  0
 10 24  1  0
 10 25  1  0
 11 26  1  0
M  END
$$$$

     RDKit          3D

 26 27  0  0  0  0  0  0  0  0999 V2000
    4.2247    0.7123    0.0433 C   0  0  0  0  0  0  0  0  0  0  0  0
    2.9335    0.0559   -0.0528 N   0  0  0  0  0  0  0  0  0  0  0  0
    1.7498    0.5690    0.2206 N   0  0  0  0  0  0  0  0  0  0  0  0
    0.7750   -0.3231    0.0194 C   0  0  0  0  0  0  0  0  0  0  0  0
   -0.6322   -0.0986    0.2196 N   0  0  0  0  0  0  0  0  0  0  0  0
   -1.0861    1.1963    0.6809 C   0  0  0  0  0  0  0  0  0  0  0  0
   -2.4221    0.9821    1.3578 C   0  0  0  0  0  0  0  0  0  0  0  0
   -3.3658    0.5684    0.3578 N   0  0  0  0  0  0  0  0  0  0  0  0
   -2.8923   -0.4546   -0.5190 C   0  0  0  0  0  0  0  0  0  0  0  0
   -1.6088   -1.1137   -0.0215 C   0  0  0  0  0  0  0  0  0  0  0  0
    1.3669   -1.4438   -0.3975 N   0  0  0  0  0  0  0  0  0  0  0  0
    2.6903   -1.2096   -0.4413 C   0  0  0  0  0  0  0  0  0  0  0  0
    3.5974   -2.0159   -0.7849 O   0  0  0  0  0  0  0  0  0  0  0  0
    4.9772    0.2553   -0.6212 H   0  0  0  0  0  0  0  0  0  0  0  0
    4.0737    1.7985   -0.2129 H   0  0  0  0  0  0  0  0  0  0  0  0
    4.5555    0.7220    1.1112 H   0  0  0  0  0  0  0  0  0  0  0  0
   -1.1756    1.8406   -0.2159 H   0  0  0  0  0  0  0  0  0  0  0  0
   -0.3476    1.6378    1.3576 H   0  0  0  0  0  0  0  0  0  0  0  0
   -2.7600    1.8948    1.8470 H   0  0  0  0  0  0  0  0  0  0  0  0
   -2.2746    0.1360    2.0723 H   0  0  0  0  0  0  0  0  0  0  0  0
   -3.6099    1.4009   -0.2219 H   0  0  0  0  0  0  0  0  0  0  0  0
   -3.6974   -1.2255   -0.6038 H   0  0  0  0  0  0  0  0  0  0  0  0
   -2.7436   -0.0875   -1.5720 H   0  0  0  0  0  0  0  0  0  0  0  0
   -1.2904   -1.8098   -0.8167 H   0  0  0  0  0  0  0  0  0  0  0  0
   -1.8979   -1.6581    0.9136 H   0  0  0  0  0  0  0  0  0  0  0  0
    0.8602   -2.3296   -0.6390 H   0  0  0  0  0  0  0  0  0  0  0  0
  1  2  1  0
  2  3  1  0
  3  4  2  0
  4  5  1  0
  5  6  1  0
  6  7  1  0
  7  8  1  0
  8  9  1  0
  9 10  1  0
  4 11  1  0
 11 12  1  0
 12 13  2  0
 12  2  1  0
 10  5  1  0
  1 14  1  0
  1 15  1  0
  1 16  1  0
  6 17  1  0
  6 18  1  0
  7 19  1  0
  7 20  1  0
  8 21  1  0
  9 22  1  0
  9 23  1  0
 10 24  1  0
 10 25  1  0
 11 26  1  0
M  END
$$$$

     RDKit          3D

 26 27  0  0  0  0  0  0  0  0999 V2000
    4.1631    1.0176   -0.3879 C   0  0  0  0  0  0  0  0  0  0  0  0
    2.9079    0.2489   -0.3833 N   0  0  0  0  0  0  0  0  0  0  0  0
    1.6830    0.7483   -0.4019 N   0  0  0  0  0  0  0  0  0  0  0  0
    0.7551   -0.2257   -0.3909 C   0  0  0  0  0  0  0  0  0  0  0  0
   -0.6717   -0.0944   -0.4042 N   0  0  0  0  0  0  0  0  0  0  0  0
   -1.2179    1.2259   -0.4329 C   0  0  0  0  0  0  0  0  0  0  0  0
   -2.6361    1.3477   -0.0568 C   0  0  0  0  0  0  0  0  0  0  0  0
   -3.3078    0.1210    0.2532 N   0  0  0  0  0  0  0  0  0  0  0  0
   -2.8964   -0.9820   -0.5858 C   0  0  0  0  0  0  0  0  0  0  0  0
   -1.4580   -1.3138   -0.3876 C   0  0  0  0  0  0  0  0  0  0  0  0
    1.4814   -1.3757   -0.3640 N   0  0  0  0  0  0  0  0  0  0  0  0
    2.7880   -1.0898   -0.3593 C   0  0  0  0  0  0  0  0  0  0  0  0
    3.7777   -1.8597   -0.3374 O   0  0  0  0  0  0  0  0  0  0  0  0
    4.9820    0.3184   -0.2054 H   0  0  0  0  0  0  0  0  0  0  0  0
    4.2703    1.5600   -1.3688 H   0  0  0  0  0  0  0  0  0  0  0  0
    4.1317    1.8198    0.3866 H   0  0  0  0  0  0  0  0  0  0  0  0
   -0.5449    1.8713    0.2048 H   0  0  0  0  0  0  0  0  0  0  0  0
   -1.0633    1.6207   -1.4742 H   0  0  0  0  0  0  0  0  0  0  0  0
   -3.2263    1.8454   -0.8732 H   0  0  0  0  0  0  0  0  0  0  0  0
   -2.7160    2.0294    0.8356 H   0  0  0  0  0  0  0  0  0  0  0  0
   -3.2172   -0.0963    1.2701 H   0  0  0  0  0  0  0  0  0  0  0  0
   -3.0983   -0.7291   -1.6309 H   0  0  0  0  0  0  0  0  0  0  0  0
   -3.4994   -1.8641   -0.2628 H   0  0  0  0  0  0  0  0  0  0  0  0
   -1.3115   -1.8191    0.5829 H   0  0  0  0  0  0  0  0  0  0  0  0
   -1.1463   -1.9852   -1.2398 H   0  0  0  0  0  0  0  0  0  0  0  0
    1.0708   -2.3397   -0.3492 H   0  0  0  0  0  0  0  0  0  0  0  0
  1  2  1  0
  2  3  1  0
  3  4  2  0
  4  5  1  0
  5  6  1  0
  6  7  1  0
  7  8  1  0
  8  9  1  0
  9 10  1  0
  4 11  1  0
 11 12  1  0
 12 13  2  0
 12  2  1  0
 10  5  1  0
  1 14  1  0
  1 15  1  0
  1 16  1  0
  6 17  1  0
  6 18  1  0
  7 19  1  0
  7 20  1  0
  8 21  1  0
  9 22  1  0
  9 23  1  0
 10 24  1  0
 10 25  1  0
 11 26  1  0
M  END
$$$$

     RDKit          3D

 26 27  0  0  0  0  0  0  0  0999 V2000
    4.2350    0.6788    0.3189 C   0  0  0  0  0  0  0  0  0  0  0  0
    2.9126    0.0393    0.3214 N   0  0  0  0  0  0  0  0  0  0  0  0
    1.7827    0.5309   -0.1504 N   0  0  0  0  0  0  0  0  0  0  0  0
    0.7744   -0.3450    0.0289 C   0  0  0  0  0  0  0  0  0  0  0  0
   -0.5740   -0.1527   -0.3542 N   0  0  0  0  0  0  0  0  0  0  0  0
   -0.9798    1.0761   -1.0044 C   0  0  0  0  0  0  0  0  0  0  0  0
   -2.3956    1.4587   -0.7309 C   0  0  0  0  0  0  0  0  0  0  0  0
   -2.9635    0.8084    0.4207 N   0  0  0  0  0  0  0  0  0  0  0  0
   -2.8762   -0.6183    0.3799 C   0  0  0  0  0  0  0  0  0  0  0  0
   -1.5764   -1.1526   -0.1168 C   0  0  0  0  0  0  0  0  0  0  0  0
    1.2925   -1.4265    0.6362 N   0  0  0  0  0  0  0  0  0  0  0  0
    2.6154   -1.1780    0.8123 C   0  0  0  0  0  0  0  0  0  0  0  0
    3.4289   -1.9729    1.3534 O   0  0  0  0  0  0  0  0  0  0  0  0
    5.0298   -0.0891    0.1196 H   0  0  0  0  0  0  0  0  0  0  0  0
    4.2831    1.3991   -0.5220 H   0  0  0  0  0  0  0  0  0  0  0  0
    4.4205    1.1593    1.3079 H   0  0  0  0  0  0  0  0  0  0  0  0
   -0.8653    0.9710   -2.1072 H   0  0  0  0  0  0  0  0  0  0  0  0
   -0.2562    1.8641   -0.6799 H   0  0  0  0  0  0  0  0  0  0  0  0
   -2.4002    2.5638   -0.5097 H   0  0  0  0  0  0  0  0  0  0  0  0
   -3.0425    1.3504   -1.6377 H   0  0  0  0  0  0  0  0  0  0  0  0
   -4.0005    1.0498    0.4109 H   0  0  0  0  0  0  0  0  0  0  0  0
   -3.0727   -0.9889    1.4244 H   0  0  0  0  0  0  0  0  0  0  0  0
   -3.7030   -1.0821   -0.2289 H   0  0  0  0  0  0  0  0  0  0  0  0
   -1.1629   -1.8821    0.6257 H   0  0  0  0  0  0  0  0  0  0  0  0
   -1.7126   -1.7468   -1.0535 H   0  0  0  0  0  0  0  0  0  0  0  0
    0.8064   -2.3147    0.9355 H   0  0  0  0  0  0  0  0  0  0  0  0
  1  2  1  0
  2  3  1  0
  3  4  2  0
  4  5  1  0
  5  6  1  0
  6  7  1  0
  7  8  1  0
  8  9  1  0
  9 10  1  0
  4 11  1  0
 11 12  1  0
 12 13  2  0
 12  2  1  0
 10  5  1  0
  1 14  1  0
  1 15  1  0
  1 16  1  0
  6 17  1  0
  6 18  1  0
  7 19  1  0
  7 20  1  0
  8 21  1  0
  9 22  1  0
  9 23  1  0
 10 24  1  0
 10 25  1  0
 11 26  1  0
M  END
$$$$

     RDKit          3D

 26 27  0  0  0  0  0  0  0  0999 V2000
    4.2910   -0.2671    0.3877 C   0  0  0  0  0  0  0  0  0  0  0  0
    2.9127    0.0261    0.0552 N   0  0  0  0  0  0  0  0  0  0  0  0
    1.8237   -0.6513    0.3434 N   0  0  0  0  0  0  0  0  0  0  0  0
    0.7591   -0.0196   -0.1511 C   0  0  0  0  0  0  0  0  0  0  0  0
   -0.5696   -0.4209   -0.0543 N   0  0  0  0  0  0  0  0  0  0  0  0
   -1.2581   -1.0590   -1.1257 C   0  0  0  0  0  0  0  0  0  0  0  0
   -2.7300   -0.7904   -1.1350 C   0  0  0  0  0  0  0  0  0  0  0  0
   -3.2120    0.2825   -0.3607 N   0  0  0  0  0  0  0  0  0  0  0  0
   -2.5281    0.6742    0.8088 C   0  0  0  0  0  0  0  0  0  0  0  0
   -1.3404   -0.1877    1.1602 C   0  0  0  0  0  0  0  0  0  0  0  0
    1.1779    1.0849   -0.7689 N   0  0  0  0  0  0  0  0  0  0  0  0
    2.5136    1.1106   -0.6393 C   0  0  0  0  0  0  0  0  0  0  0  0
    3.2122    2.0364   -1.1192 O   0  0  0  0  0  0  0  0  0  0  0  0
    4.9343   -0.0420   -0.4968 H   0  0  0  0  0  0  0  0  0  0  0  0
    4.5805    0.3686    1.2332 H   0  0  0  0  0  0  0  0  0  0  0  0
    4.4645   -1.3301    0.6234 H   0  0  0  0  0  0  0  0  0  0  0  0
   -1.1085   -2.1595   -1.0284 H   0  0  0  0  0  0  0  0  0  0  0  0
   -0.7853   -0.7913   -2.1019 H   0  0  0  0  0  0  0  0  0  0  0  0
   -3.0096   -0.5702   -2.2109 H   0  0  0  0  0  0  0  0  0  0  0  0
   -3.3062   -1.7044   -0.8868 H   0  0  0  0  0  0  0  0  0  0  0  0
   -3.6251    1.0850   -0.8700 H   0  0  0  0  0  0  0  0  0  0  0  0
   -3.2176    0.6473    1.6721 H   0  0  0  0  0  0  0  0  0  0  0  0
   -2.1437    1.7239    0.7503 H   0  0  0  0  0  0  0  0  0  0  0  0
   -0.7413    0.3497    1.9141 H   0  0  0  0  0  0  0  0  0  0  0  0
   -1.6453   -1.1581    1.5920 H   0  0  0  0  0  0  0  0  0  0  0  0
    0.5513    1.7625   -1.2452 H   0  0  0  0  0  0  0  0  0  0  0  0
  1  2  1  0
  2  3  1  0
  3  4  2  0
  4  5  1  0
  5  6  1  0
  6  7  1  0
  7  8  1  0
  8  9  1  0
  9 10  1  0
  4 11  1  0
 11 12  1  0
 12 13  2  0
 12  2  1  0
 10  5  1  0
  1 14  1  0
  1 15  1  0
  1 16  1  0
  6 17  1  0
  6 18  1  0
  7 19  1  0
  7 20  1  0
  8 21  1  0
  9 22  1  0
  9 23  1  0
 10 24  1  0
 10 25  1  0
 11 26  1  0
M  END
$$$$

     RDKit          3D

 26 27  0  0  0  0  0  0  0  0999 V2000
   -4.2448    0.9745    0.1209 C   0  0  0  0  0  0  0  0  0  0  0  0
   -2.8870    0.4731   -0.0503 N   0  0  0  0  0  0  0  0  0  0  0  0
   -1.7313    0.9722    0.3745 N   0  0  0  0  0  0  0  0  0  0  0  0
   -0.7160    0.1916   -0.0054 C   0  0  0  0  0  0  0  0  0  0  0  0
    0.6841    0.2819    0.1645 N   0  0  0  0  0  0  0  0  0  0  0  0
    1.4909    0.7785   -0.9620 C   0  0  0  0  0  0  0  0  0  0  0  0
    2.6482   -0.1879   -1.2008 C   0  0  0  0  0  0  0  0  0  0  0  0
    3.3728   -0.2274    0.0574 N   0  0  0  0  0  0  0  0  0  0  0  0
    2.5597   -0.9289    1.0344 C   0  0  0  0  0  0  0  0  0  0  0  0
    1.3029   -0.1091    1.3890 C   0  0  0  0  0  0  0  0  0  0  0  0
   -1.2714   -0.8489   -0.7036 N   0  0  0  0  0  0  0  0  0  0  0  0
   -2.6013   -0.6642   -0.7239 C   0  0  0  0  0  0  0  0  0  0  0  0
   -3.4422   -1.4287   -1.2813 O   0  0  0  0  0  0  0  0  0  0  0  0
   -4.9256    0.1110    0.3671 H   0  0  0  0  0  0  0  0  0  0  0  0
   -4.6372    1.4211   -0.8023 H   0  0  0  0  0  0  0  0  0  0  0  0
   -4.2813    1.6393    1.0070 H   0  0  0  0  0  0  0  0  0  0  0  0
    0.8900    0.7569   -1.8902 H   0  0  0  0  0  0  0  0  0  0  0  0
    1.8846    1.7685   -0.7297 H   0  0  0  0  0  0  0  0  0  0  0  0
    2.2711   -1.2135   -1.3977 H   0  0  0  0  0  0  0  0  0  0  0  0
    3.2856    0.2069   -1.9836 H   0  0  0  0  0  0  0  0  0  0  0  0
    3.5619    0.7662    0.3194 H   0  0  0  0  0  0  0  0  0  0  0  0
    2.1482   -1.8524    0.5518 H   0  0  0  0  0  0  0  0  0  0  0  0
    3.1134   -1.2389    1.9170 H   0  0  0  0  0  0  0  0  0  0  0  0
    1.5959    0.7601    2.0243 H   0  0  0  0  0  0  0  0  0  0  0  0
    0.6907   -0.7598    2.0427 H   0  0  0  0  0  0  0  0  0  0  0  0
   -0.7619   -1.6418   -1.1415 H   0  0  0  0  0  0  0  0  0  0  0  0
  1  2  1  0
  2  3  1  0
  3  4  2  0
  4  5  1  0
  5  6  1  0
  6  7  1  0
  7  8  1  0
  8  9  1  0
  9 10  1  0
  4 11  1  0
 11 12  1  0
 12 13  2  0
 12  2  1  0
 10  5  1  0
  1 14  1  0
  1 15  1  0
  1 16  1  0
  6 17  1  0
  6 18  1  0
  7 19  1  0
  7 20  1  0
  8 21  1  0
  9 22  1  0
  9 23  1  0
 10 24  1  0
 10 25  1  0
 11 26  1  0
M  END
$$$$

     RDKit          3D

 26 27  0  0  0  0  0  0  0  0999 V2000
    4.2645    0.6287    0.1146 C   0  0  0  0  0  0  0  0  0  0  0  0
    2.9435    0.0339   -0.0419 N   0  0  0  0  0  0  0  0  0  0  0  0
    1.7555    0.5800    0.1432 N   0  0  0  0  0  0  0  0  0  0  0  0
    0.7704   -0.2988   -0.1046 C   0  0  0  0  0  0  0  0  0  0  0  0
   -0.6472   -0.0823   -0.0148 N   0  0  0  0  0  0  0  0  0  0  0  0
   -1.6154   -1.0833   -0.2997 C   0  0  0  0  0  0  0  0  0  0  0  0
   -2.8324   -0.8042    0.5930 C   0  0  0  0  0  0  0  0  0  0  0  0
   -3.4188    0.4367    0.1907 N   0  0  0  0  0  0  0  0  0  0  0  0
   -2.5071    1.5195    0.0403 C   0  0  0  0  0  0  0  0  0  0  0  0
   -1.0963    1.2299    0.3883 C   0  0  0  0  0  0  0  0  0  0  0  0
    1.3871   -1.4451   -0.4606 N   0  0  0  0  0  0  0  0  0  0  0  0
    2.7325   -1.2384   -0.4216 C   0  0  0  0  0  0  0  0  0  0  0  0
    3.5761   -2.1285   -0.7043 O   0  0  0  0  0  0  0  0  0  0  0  0
    4.9440   -0.0477    0.6737 H   0  0  0  0  0  0  0  0  0  0  0  0
    4.6927    0.8938   -0.8927 H   0  0  0  0  0  0  0  0  0  0  0  0
    4.2215    1.5776    0.6832 H   0  0  0  0  0  0  0  0  0  0  0  0
   -1.9881   -0.9098   -1.3481 H   0  0  0  0  0  0  0  0  0  0  0  0
   -1.2678   -2.1193   -0.2067 H   0  0  0  0  0  0  0  0  0  0  0  0
   -3.6081   -1.6042    0.4124 H   0  0  0  0  0  0  0  0  0  0  0  0
   -2.5188   -0.7971    1.6547 H   0  0  0  0  0  0  0  0  0  0  0  0
   -3.9522    0.2810   -0.6969 H   0  0  0  0  0  0  0  0  0  0  0  0
   -2.8543    2.3610    0.7098 H   0  0  0  0  0  0  0  0  0  0  0  0
   -2.5449    1.9695   -0.9905 H   0  0  0  0  0  0  0  0  0  0  0  0
   -0.8770    1.4116    1.4691 H   0  0  0  0  0  0  0  0  0  0  0  0
   -0.4434    1.9609   -0.1734 H   0  0  0  0  0  0  0  0  0  0  0  0
    0.8840   -2.3253   -0.7172 H   0  0  0  0  0  0  0  0  0  0  0  0
  1  2  1  0
  2  3  1  0
  3  4  2  0
  4  5  1  0
  5  6  1  0
  6  7  1  0
  7  8  1  0
  8  9  1  0
  9 10  1  0
  4 11  1  0
 11 12  1  0
 12 13  2  0
 12  2  1  0
 10  5  1  0
  1 14  1  0
  1 15  1  0
  1 16  1  0
  6 17  1  0
  6 18  1  0
  7 19  1  0
  7 20  1  0
  8 21  1  0
  9 22  1  0
  9 23  1  0
 10 24  1  0
 10 25  1  0
 11 26  1  0
M  END
$$$$

     RDKit          3D

 26 27  0  0  0  0  0  0  0  0999 V2000
    4.2299   -0.6290    0.8992 C   0  0  0  0  0  0  0  0  0  0  0  0
    2.9394   -0.1339    0.4536 N   0  0  0  0  0  0  0  0  0  0  0  0
    1.7466   -0.4870    0.9320 N   0  0  0  0  0  0  0  0  0  0  0  0
    0.7600    0.1678    0.2779 C   0  0  0  0  0  0  0  0  0  0  0  0
   -0.6311    0.0740    0.4469 N   0  0  0  0  0  0  0  0  0  0  0  0
   -1.4664    1.2372    0.5484 C   0  0  0  0  0  0  0  0  0  0  0  0
   -2.7618    1.0435   -0.2477 C   0  0  0  0  0  0  0  0  0  0  0  0
   -3.3721   -0.2341    0.0079 N   0  0  0  0  0  0  0  0  0  0  0  0
   -2.4755   -1.3019   -0.3484 C   0  0  0  0  0  0  0  0  0  0  0  0
   -1.2051   -1.2761    0.4852 C   0  0  0  0  0  0  0  0  0  0  0  0
    1.3546    0.9544   -0.6384 N   0  0  0  0  0  0  0  0  0  0  0  0
    2.6988    0.7540   -0.5145 C   0  0  0  0  0  0  0  0  0  0  0  0
    3.5567    1.3539   -1.2435 O   0  0  0  0  0  0  0  0  0  0  0  0
    4.9713    0.1995    0.9708 H   0  0  0  0  0  0  0  0  0  0  0  0
    4.1208   -1.1558    1.8696 H   0  0  0  0  0  0  0  0  0  0  0  0
    4.6406   -1.4034    0.1955 H   0  0  0  0  0  0  0  0  0  0  0  0
   -1.0040    2.1638    0.1679 H   0  0  0  0  0  0  0  0  0  0  0  0
   -1.7361    1.4707    1.6221 H   0  0  0  0  0  0  0  0  0  0  0  0
   -2.5013    1.2097   -1.3090 H   0  0  0  0  0  0  0  0  0  0  0  0
   -3.4766    1.8118    0.1384 H   0  0  0  0  0  0  0  0  0  0  0  0
   -4.1867   -0.3050   -0.6497 H   0  0  0  0  0  0  0  0  0  0  0  0
   -2.9881   -2.2607   -0.1519 H   0  0  0  0  0  0  0  0  0  0  0  0
   -2.2265   -1.2735   -1.4295 H   0  0  0  0  0  0  0  0  0  0  0  0
   -1.3998   -1.5679    1.5357 H   0  0  0  0  0  0  0  0  0  0  0  0
   -0.5208   -2.0246    0.0563 H   0  0  0  0  0  0  0  0  0  0  0  0
    0.9334    1.6126   -1.3372 H   0  0  0  0  0  0  0  0  0  0  0  0
  1  2  1  0
  2  3  1  0
  3  4  2  0
  4  5  1  0
  5  6  1  0
  6  7  1  0
  7  8  1  0
  8  9  1  0
  9 10  1  0
  4 11  1  0
 11 12  1  0
 12 13  2  0
 12  2  1  0
 10  5  1  0
  1 14  1  0
  1 15  1  0
  1 16  1  0
  6 17  1  0
  6 18  1  0
  7 19  1  0
  7 20  1  0
  8 21  1  0
  9 22  1  0
  9 23  1  0
 10 24  1  0
 10 25  1  0
 11 26  1  0
M  END
$$$$
