
     RDKit          3D

 23 23  0  0  0  0  0  0  0  0999 V2000
    3.6624   -0.0666   -1.2496 O   0  0  0  0  0  0  0  0  0  0  0  0
    3.2152   -0.1040   -0.0901 C   0  0  0  0  0  0  0  0  0  0  0  0
    4.1393    0.1619    0.9399 O   0  0  0  0  0  0  0  0  0  0  0  0
    1.8003   -0.4038    0.1912 C   0  0  0  0  0  0  0  0  0  0  0  0
    1.0154    0.0274   -0.9460 N   0  0  0  0  0  0  0  0  0  0  0  0
   -0.4081    0.0294   -0.7111 C   0  0  2  0  0  0  0  0  0  0  0  0
   -0.7446    1.0306    0.4012 C   0  0  0  0  0  0  0  0  0  0  0  0
   -2.2651    1.2083    0.2926 C   0  0  0  0  0  0  0  0  0  0  0  0
   -2.8269   -0.0529    0.8621 C   0  0  0  0  0  0  0  0  0  0  0  0
   -3.8132    0.0202    1.5912 O   0  0  0  0  0  0  0  0  0  0  0  0
   -2.1730   -1.2559    0.5126 N   0  0  0  0  0  0  0  0  0  0  0  0
   -1.0124   -1.2424   -0.3460 C   0  0  0  0  0  0  0  0  0  0  0  0
   -0.5906   -2.3678   -0.7307 O   0  0  0  0  0  0  0  0  0  0  0  0
    4.7363    0.9843    0.9490 H   0  0  0  0  0  0  0  0  0  0  0  0
    1.7591   -1.5227    0.3061 H   0  0  0  0  0  0  0  0  0  0  0  0
    1.4476    0.1077    1.0908 H   0  0  0  0  0  0  0  0  0  0  0  0
    1.2494   -0.5947   -1.7304 H   0  0  0  0  0  0  0  0  0  0  0  0
   -0.8801    0.3963   -1.6385 H   0  0  0  0  0  0  0  0  0  0  0  0
   -0.5262    0.4902    1.3602 H   0  0  0  0  0  0  0  0  0  0  0  0
   -0.1889    1.9643    0.2844 H   0  0  0  0  0  0  0  0  0  0  0  0
   -2.5638    2.0974    0.8705 H   0  0  0  0  0  0  0  0  0  0  0  0
   -2.5013    1.2537   -0.7665 H   0  0  0  0  0  0  0  0  0  0  0  0
   -2.5311   -2.1611    0.8680 H   0  0  0  0  0  0  0  0  0  0  0  0
  1  2  2  0
  2  3  1  0
  2  4  1  0
  4  5  1  0
  5  6  1  0
  6  7  1  0
  7  8  1  0
  8  9  1  0
  9 10  2  0
  9 11  1  0
 11 12  1  0
 12 13  2  0
 12  6  1  0
  3 14  1  0
  4 15  1  0
  4 16  1  0
  5 17  1  0
  6 18  1  6
  7 19  1  0
  7 20  1  0
  8 21  1  0
  8 22  1  0
 11 23  1  0
M  END
$$$$

     RDKit          3D

 23 23  0  0  0  0  0  0  0  0999 V2000
    2.4609    1.4073    0.3463 O   0  0  0  0  0  0  0  0  0  0  0  0
    2.8155    0.2341    0.1285 C   0  0  0  0  0  0  0  0  0  0  0  0
    3.9790   -0.2321    0.7150 O   0  0  0  0  0  0  0  0  0  0  0  0
    2.0130   -0.6456   -0.7375 C   0  0  0  0  0  0  0  0  0  0  0  0
    0.8363   -0.0502   -1.2797 N   0  0  0  0  0  0  0  0  0  0  0  0
   -0.1992    0.2500   -0.3381 C   0  0  2  0  0  0  0  0  0  0  0  0
   -0.7412   -0.9833    0.3428 C   0  0  0  0  0  0  0  0  0  0  0  0
   -2.0151   -0.7613    1.0826 C   0  0  0  0  0  0  0  0  0  0  0  0
   -2.5992    0.5797    0.9525 C   0  0  0  0  0  0  0  0  0  0  0  0
   -3.2073    1.1770    1.8830 O   0  0  0  0  0  0  0  0  0  0  0  0
   -2.4678    1.2378   -0.3021 N   0  0  0  0  0  0  0  0  0  0  0  0
   -1.3287    0.8832   -1.0778 C   0  0  0  0  0  0  0  0  0  0  0  0
   -1.3054    1.1029   -2.3078 O   0  0  0  0  0  0  0  0  0  0  0  0
    4.8043    0.3802    0.8186 H   0  0  0  0  0  0  0  0  0  0  0  0
    2.6166   -1.0186   -1.6172 H   0  0  0  0  0  0  0  0  0  0  0  0
    1.7284   -1.5728   -0.1913 H   0  0  0  0  0  0  0  0  0  0  0  0
    1.1111    0.8502   -1.7429 H   0  0  0  0  0  0  0  0  0  0  0  0
    0.1848    0.9191    0.4440 H   0  0  0  0  0  0  0  0  0  0  0  0
    0.0281   -1.3326    1.0842 H   0  0  0  0  0  0  0  0  0  0  0  0
   -0.8294   -1.8209   -0.4059 H   0  0  0  0  0  0  0  0  0  0  0  0
   -2.7805   -1.4809    0.6672 H   0  0  0  0  0  0  0  0  0  0  0  0
   -1.9327   -1.0628    2.1625 H   0  0  0  0  0  0  0  0  0  0  0  0
   -3.1714    1.9398   -0.6268 H   0  0  0  0  0  0  0  0  0  0  0  0
  1  2  2  0
  2  3  1  0
  2  4  1  0
  4  5  1  0
  5  6  1  0
  6  7  1  0
  7  8  1  0
  8  9  1  0
  9 10  2  0
  9 11  1  0
 11 12  1  0
 12 13  2  0
 12  6  1  0
  3 14  1  0
  4 15  1  0
  4 16  1  0
  5 17  1  0
  6 18  1  1
  7 19  1  0
  7 20  1  0
  8 21  1  0
  8 22  1  0
 11 23  1  0
M  END
$$$$

     RDKit          3D

 23 23  0  0  0  0  0  0  0  0999 V2000
    3.3169   -0.2473    1.6937 O   0  0  0  0  0  0  0  0  0  0  0  0
    2.9917   -0.1256    0.5177 C   0  0  0  0  0  0  0  0  0  0  0  0
    3.5962   -1.0226   -0.4688 O   0  0  0  0  0  0  0  0  0  0  0  0
    2.0699    0.8031   -0.1266 C   0  0  0  0  0  0  0  0  0  0  0  0
    0.7466    0.4664   -0.4460 N   0  0  0  0  0  0  0  0  0  0  0  0
   -0.3367    0.6537    0.4349 C   0  0  2  0  0  0  0  0  0  0  0  0
   -0.9532   -0.6030    1.0413 C   0  0  0  0  0  0  0  0  0  0  0  0
   -1.4222   -1.4452   -0.1699 C   0  0  0  0  0  0  0  0  0  0  0  0
   -2.6549   -0.7763   -0.6722 C   0  0  0  0  0  0  0  0  0  0  0  0
   -3.6130   -1.4465   -0.8694 O   0  0  0  0  0  0  0  0  0  0  0  0
   -2.5506    0.6070   -0.8631 N   0  0  0  0  0  0  0  0  0  0  0  0
   -1.4544    1.2774   -0.3586 C   0  0  0  0  0  0  0  0  0  0  0  0
   -1.3608    2.5830   -0.5166 O   0  0  0  0  0  0  0  0  0  0  0  0
    4.3913   -1.5233   -0.2883 H   0  0  0  0  0  0  0  0  0  0  0  0
    1.8957    1.6156    0.7947 H   0  0  0  0  0  0  0  0  0  0  0  0
    2.5897    1.4202   -0.8310 H   0  0  0  0  0  0  0  0  0  0  0  0
    0.5575    0.5097   -1.4544 H   0  0  0  0  0  0  0  0  0  0  0  0
    0.0486    1.3454    1.2637 H   0  0  0  0  0  0  0  0  0  0  0  0
   -0.3751   -1.1153    1.7980 H   0  0  0  0  0  0  0  0  0  0  0  0
   -1.9424   -0.1965    1.4919 H   0  0  0  0  0  0  0  0  0  0  0  0
   -1.5532   -2.5143    0.1408 H   0  0  0  0  0  0  0  0  0  0  0  0
   -0.6075   -1.3850   -0.9334 H   0  0  0  0  0  0  0  0  0  0  0  0
   -3.3799    1.1195   -1.3263 H   0  0  0  0  0  0  0  0  0  0  0  0
  1  2  2  0
  2  3  1  0
  2  4  1  0
  4  5  1  0
  5  6  1  0
  6  7  1  0
  7  8  1  0
  8  9  1  0
  9 10  2  0
  9 11  1  0
 11 12  1  0
 12 13  2  0
 12  6  1  0
  3 14  1  0
  4 15  1  0
  4 16  1  0
  5 17  1  0
  6 18  1  1
  7 19  1  0
  7 20  1  0
  8 21  1  0
  8 22  1  0
 11 23  1  0
M  END
$$$$

     RDKit          3D

 23 23  0  0  0  0  0  0  0  0999 V2000
   -3.4815   -0.8898   -1.0843 O   0  0  0  0  0  0  0  0  0  0  0  0
   -3.2341   -0.5155    0.0817 C   0  0  0  0  0  0  0  0  0  0  0  0
   -4.2438   -0.5646    1.0200 O   0  0  0  0  0  0  0  0  0  0  0  0
   -1.8686   -0.0313    0.4280 C   0  0  0  0  0  0  0  0  0  0  0  0
   -1.0687   -0.0625   -0.7271 N   0  0  0  0  0  0  0  0  0  0  0  0
    0.2913    0.2109   -0.6448 C   0  0  2  0  0  0  0  0  0  0  0  0
    0.9694   -0.8782    0.2285 C   0  0  0  0  0  0  0  0  0  0  0  0
    2.4379   -0.8708   -0.0197 C   0  0  0  0  0  0  0  0  0  0  0  0
    2.9610    0.4613   -0.3962 C   0  0  0  0  0  0  0  0  0  0  0  0
    4.0513    0.6021   -0.9830 O   0  0  0  0  0  0  0  0  0  0  0  0
    2.1699    1.6317   -0.0668 N   0  0  0  0  0  0  0  0  0  0  0  0
    0.7538    1.4597   -0.0117 C   0  0  0  0  0  0  0  0  0  0  0  0
    0.0772    2.3356    0.5404 O   0  0  0  0  0  0  0  0  0  0  0  0
   -4.9445   -1.3152    1.0261 H   0  0  0  0  0  0  0  0  0  0  0  0
   -1.5345   -0.5773    1.3114 H   0  0  0  0  0  0  0  0  0  0  0  0
   -2.0307    1.0314    0.7800 H   0  0  0  0  0  0  0  0  0  0  0  0
   -1.5173    0.5069   -1.4788 H   0  0  0  0  0  0  0  0  0  0  0  0
    0.7781    0.1157   -1.6375 H   0  0  0  0  0  0  0  0  0  0  0  0
    0.4752   -1.8410    0.0806 H   0  0  0  0  0  0  0  0  0  0  0  0
    0.7346   -0.5698    1.2861 H   0  0  0  0  0  0  0  0  0  0  0  0
    2.9273   -1.1324    0.9548 H   0  0  0  0  0  0  0  0  0  0  0  0
    2.6486   -1.6365   -0.8024 H   0  0  0  0  0  0  0  0  0  0  0  0
    2.6481    2.5293    0.1148 H   0  0  0  0  0  0  0  0  0  0  0  0
  1  2  2  0
  2  3  1  0
  2  4  1  0
  4  5  1  0
  5  6  1  0
  6  7  1  0
  7  8  1  0
  8  9  1  0
  9 10  2  0
  9 11  1  0
 11 12  1  0
 12 13  2  0
 12  6  1  0
  3 14  1  0
  4 15  1  0
  4 16  1  0
  5 17  1  0
  6 18  1  6
  7 19  1  0
  7 20  1  0
  8 21  1  0
  8 22  1  0
 11 23  1  0
M  END
$$$$

     RDKit          3D

 23 23  0  0  0  0  0  0  0  0999 V2000
    3.2962    1.0255   -1.0858 O   0  0  0  0  0  0  0  0  0  0  0  0
    3.2299   -0.2116   -0.7066 C   0  0  0  0  0  0  0  0  0  0  0  0
    4.3449   -0.9620   -0.8859 O   0  0  0  0  0  0  0  0  0  0  0  0
    1.9493   -0.6856   -0.1216 C   0  0  0  0  0  0  0  0  0  0  0  0
    1.0097    0.3976   -0.0566 N   0  0  0  0  0  0  0  0  0  0  0  0
   -0.2553    0.0658    0.5622 C   0  0  2  0  0  0  0  0  0  0  0  0
   -1.0429   -0.9340   -0.1764 C   0  0  0  0  0  0  0  0  0  0  0  0
   -2.4806   -0.6154   -0.4302 C   0  0  0  0  0  0  0  0  0  0  0  0
   -2.8315    0.7976   -0.4533 C   0  0  0  0  0  0  0  0  0  0  0  0
   -3.8553    1.1662   -1.0790 O   0  0  0  0  0  0  0  0  0  0  0  0
   -2.0626    1.8030    0.2150 N   0  0  0  0  0  0  0  0  0  0  0  0
   -0.9110    1.3352    0.8897 C   0  0  0  0  0  0  0  0  0  0  0  0
   -0.4085    2.0367    1.8309 O   0  0  0  0  0  0  0  0  0  0  0  0
    5.2665   -0.5418   -0.9325 H   0  0  0  0  0  0  0  0  0  0  0  0
    1.5580   -1.5299   -0.7710 H   0  0  0  0  0  0  0  0  0  0  0  0
    2.1452   -1.0788    0.8933 H   0  0  0  0  0  0  0  0  0  0  0  0
    0.8272    0.7449   -1.0341 H   0  0  0  0  0  0  0  0  0  0  0  0
    0.0417   -0.3689    1.5668 H   0  0  0  0  0  0  0  0  0  0  0  0
   -1.0487   -1.9174    0.3889 H   0  0  0  0  0  0  0  0  0  0  0  0
   -0.5324   -1.1807   -1.1274 H   0  0  0  0  0  0  0  0  0  0  0  0
   -3.1642   -1.1122    0.2936 H   0  0  0  0  0  0  0  0  0  0  0  0
   -2.7719   -1.0435   -1.4163 H   0  0  0  0  0  0  0  0  0  0  0  0
   -2.3036    2.8093    0.2237 H   0  0  0  0  0  0  0  0  0  0  0  0
  1  2  2  0
  2  3  1  0
  2  4  1  0
  4  5  1  0
  5  6  1  0
  6  7  1  0
  7  8  1  0
  8  9  1  0
  9 10  2  0
  9 11  1  0
 11 12  1  0
 12 13  2  0
 12  6  1  0
  3 14  1  0
  4 15  1  0
  4 16  1  0
  5 17  1  0
  6 18  1  1
  7 19  1  0
  7 20  1  0
  8 21  1  0
  8 22  1  0
 11 23  1  0
M  END
$$$$

     RDKit          3D

 23 23  0  0  0  0  0  0  0  0999 V2000
    3.5109   -1.5529   -0.0608 O   0  0  0  0  0  0  0  0  0  0  0  0
    3.2580   -0.3370    0.1596 C   0  0  0  0  0  0  0  0  0  0  0  0
    4.3506    0.4891    0.3861 O   0  0  0  0  0  0  0  0  0  0  0  0
    1.8509    0.1477    0.1679 C   0  0  0  0  0  0  0  0  0  0  0  0
    0.9860   -0.9419   -0.0996 N   0  0  0  0  0  0  0  0  0  0  0  0
   -0.4191   -0.6579   -0.1211 C   0  0  2  0  0  0  0  0  0  0  0  0
   -0.8335    0.2940   -1.1748 C   0  0  0  0  0  0  0  0  0  0  0  0
   -2.1825    0.8845   -0.9666 C   0  0  0  0  0  0  0  0  0  0  0  0
   -3.0144    0.1794    0.0229 C   0  0  0  0  0  0  0  0  0  0  0  0
   -4.1898   -0.1244   -0.2147 O   0  0  0  0  0  0  0  0  0  0  0  0
   -2.3883   -0.1330    1.2712 N   0  0  0  0  0  0  0  0  0  0  0  0
   -0.9597   -0.2643    1.1865 C   0  0  0  0  0  0  0  0  0  0  0  0
   -0.2835   -0.0364    2.2239 O   0  0  0  0  0  0  0  0  0  0  0  0
    5.2568    0.1903    0.0438 H   0  0  0  0  0  0  0  0  0  0  0  0
    1.6295    0.7033    1.0905 H   0  0  0  0  0  0  0  0  0  0  0  0
    1.7899    0.8728   -0.6915 H   0  0  0  0  0  0  0  0  0  0  0  0
    1.2681   -1.5849   -0.8291 H   0  0  0  0  0  0  0  0  0  0  0  0
   -0.9033   -1.6543   -0.3686 H   0  0  0  0  0  0  0  0  0  0  0  0
   -0.8883   -0.2808   -2.1476 H   0  0  0  0  0  0  0  0  0  0  0  0
   -0.0951    1.1035   -1.3976 H   0  0  0  0  0  0  0  0  0  0  0  0
   -2.7737    1.0278   -1.8969 H   0  0  0  0  0  0  0  0  0  0  0  0
   -2.0405    1.9255   -0.5421 H   0  0  0  0  0  0  0  0  0  0  0  0
   -2.9288   -0.2504    2.1508 H   0  0  0  0  0  0  0  0  0  0  0  0
  1  2  2  0
  2  3  1  0
  2  4  1  0
  4  5  1  0
  5  6  1  0
  6  7  1  0
  7  8  1  0
  8  9  1  0
  9 10  2  0
  9 11  1  0
 11 12  1  0
 12 13  2  0
 12  6  1  0
  3 14  1  0
  4 15  1  0
  4 16  1  0
  5 17  1  0
  6 18  1  6
  7 19  1  0
  7 20  1  0
  8 21  1  0
  8 22  1  0
 11 23  1  0
M  END
$$$$

     RDKit          3D

 23 23  0  0  0  0  0  0  0  0999 V2000
    3.6293   -0.5074    0.9275 O   0  0  0  0  0  0  0  0  0  0  0  0
    3.3604    0.2958   -0.0266 C   0  0  0  0  0  0  0  0  0  0  0  0
    4.4148    0.9516   -0.6179 O   0  0  0  0  0  0  0  0  0  0  0  0
    1.9237    0.4743   -0.4420 C   0  0  0  0  0  0  0  0  0  0  0  0
    1.0932   -0.3342    0.3877 N   0  0  0  0  0  0  0  0  0  0  0  0
   -0.2593   -0.4082    0.0147 C   0  0  2  0  0  0  0  0  0  0  0  0
   -1.0112    0.8962    0.0834 C   0  0  0  0  0  0  0  0  0  0  0  0
   -2.4310    0.7558   -0.3930 C   0  0  0  0  0  0  0  0  0  0  0  0
   -2.8793   -0.6503   -0.4940 C   0  0  0  0  0  0  0  0  0  0  0  0
   -3.6892   -1.0355   -1.3590 O   0  0  0  0  0  0  0  0  0  0  0  0
   -2.3532   -1.6110    0.4490 N   0  0  0  0  0  0  0  0  0  0  0  0
   -1.0341   -1.3510    0.8989 C   0  0  0  0  0  0  0  0  0  0  0  0
   -0.5356   -1.8332    1.9125 O   0  0  0  0  0  0  0  0  0  0  0  0
    5.3949    0.7380   -0.3753 H   0  0  0  0  0  0  0  0  0  0  0  0
    1.8709    0.1635   -1.4997 H   0  0  0  0  0  0  0  0  0  0  0  0
    1.6602    1.5727   -0.3976 H   0  0  0  0  0  0  0  0  0  0  0  0
    1.2743   -0.2640    1.4039 H   0  0  0  0  0  0  0  0  0  0  0  0
   -0.3803   -0.8737   -1.0226 H   0  0  0  0  0  0  0  0  0  0  0  0
   -0.4420    1.7058   -0.4197 H   0  0  0  0  0  0  0  0  0  0  0  0
   -1.0462    1.1942    1.1716 H   0  0  0  0  0  0  0  0  0  0  0  0
   -2.5511    1.3036   -1.3554 H   0  0  0  0  0  0  0  0  0  0  0  0
   -3.1205    1.2571    0.3529 H   0  0  0  0  0  0  0  0  0  0  0  0
   -2.8884   -2.4402    0.7884 H   0  0  0  0  0  0  0  0  0  0  0  0
  1  2  2  0
  2  3  1  0
  2  4  1  0
  4  5  1  0
  5  6  1  0
  6  7  1  0
  7  8  1  0
  8  9  1  0
  9 10  2  0
  9 11  1  0
 11 12  1  0
 12 13  2  0
 12  6  1  0
  3 14  1  0
  4 15  1  0
  4 16  1  0
  5 17  1  0
  6 18  1  6
  7 19  1  0
  7 20  1  0
  8 21  1  0
  8 22  1  0
 11 23  1  0
M  END
$$$$

     RDKit          3D

 23 23  0  0  0  0  0  0  0  0999 V2000
    3.6459   -1.2097   -0.3826 O   0  0  0  0  0  0  0  0  0  0  0  0
    3.3665    0.0042   -0.3873 C   0  0  0  0  0  0  0  0  0  0  0  0
    4.3665    0.9382   -0.3405 O   0  0  0  0  0  0  0  0  0  0  0  0
    1.9616    0.4286   -0.4449 C   0  0  0  0  0  0  0  0  0  0  0  0
    1.0318   -0.6602   -0.5213 N   0  0  0  0  0  0  0  0  0  0  0  0
   -0.3240   -0.2649   -0.5376 C   0  0  2  0  0  0  0  0  0  0  0  0
   -0.7769    0.4258    0.7173 C   0  0  0  0  0  0  0  0  0  0  0  0
   -2.2067    0.8181    0.6887 C   0  0  0  0  0  0  0  0  0  0  0  0
   -2.9895    0.2130   -0.3835 C   0  0  0  0  0  0  0  0  0  0  0  0
   -3.9785    0.8101   -0.8851 O   0  0  0  0  0  0  0  0  0  0  0  0
   -2.6406   -1.0691   -0.8820 N   0  0  0  0  0  0  0  0  0  0  0  0
   -1.2377   -1.4042   -0.7993 C   0  0  0  0  0  0  0  0  0  0  0  0
   -0.8765   -2.5953   -0.9488 O   0  0  0  0  0  0  0  0  0  0  0  0
    5.3436    0.7366   -0.1831 H   0  0  0  0  0  0  0  0  0  0  0  0
    1.7890    1.0807   -1.3448 H   0  0  0  0  0  0  0  0  0  0  0  0
    1.7822    1.0963    0.4376 H   0  0  0  0  0  0  0  0  0  0  0  0
    1.2794   -1.5272   -0.0449 H   0  0  0  0  0  0  0  0  0  0  0  0
   -0.4681    0.4443   -1.3861 H   0  0  0  0  0  0  0  0  0  0  0  0
   -0.1733    1.3273    0.9813 H   0  0  0  0  0  0  0  0  0  0  0  0
   -0.5638   -0.3031    1.5558 H   0  0  0  0  0  0  0  0  0  0  0  0
   -2.3439    1.9129    0.6393 H   0  0  0  0  0  0  0  0  0  0  0  0
   -2.6547    0.5233    1.6849 H   0  0  0  0  0  0  0  0  0  0  0  0
   -3.3326   -1.7256   -1.2803 H   0  0  0  0  0  0  0  0  0  0  0  0
  1  2  2  0
  2  3  1  0
  2  4  1  0
  4  5  1  0
  5  6  1  0
  6  7  1  0
  7  8  1  0
  8  9  1  0
  9 10  2  0
  9 11  1  0
 11 12  1  0
 12 13  2  0
 12  6  1  0
  3 14  1  0
  4 15  1  0
  4 16  1  0
  5 17  1  0
  6 18  1  6
  7 19  1  0
  7 20  1  0
  8 21  1  0
  8 22  1  0
 11 23  1  0
M  END
$$$$
