
     RDKit          3D

 31 31  0  0  0  0  0  0  0  0999 V2000
    3.8586   -0.2890   -1.0699 C   0  0  0  0  0  0  0  0  0  0  0  0
    2.5821    0.2242   -0.6748 N   0  0  0  0  0  0  0  0  0  0  0  0
    2.1246   -0.3286    0.5869 C   0  0  0  0  0  0  0  0  0  0  0  0
    0.7748    0.2294    0.9820 C   0  0  0  0  0  0  0  0  0  0  0  0
   -0.2545   -0.0339    0.0491 N   0  0  0  0  0  0  0  0  0  0  0  0
   -0.1499    0.6242   -1.2067 C   0  0  0  0  0  0  0  0  0  0  0  0
   -1.3978    0.8214   -1.9449 C   0  0  0  0  0  0  0  0  0  0  0  0
   -1.4630    0.6615   -3.1842 O   0  0  0  0  0  0  0  0  0  0  0  0
   -2.5619    1.2104   -1.1862 N   0  0  0  0  0  0  0  0  0  0  0  0
   -2.5264    0.8602    0.1848 C   0  0  0  0  0  0  0  0  0  0  0  0
   -3.3005    1.4410    0.9796 O   0  0  0  0  0  0  0  0  0  0  0  0
   -1.5600   -0.1851    0.5868 C   0  0  0  0  0  0  0  0  0  0  0  0
   -2.0828   -1.5501    0.1138 C   0  0  0  0  0  0  0  0  0  0  0  0
   -1.5905   -0.2437    2.1017 C   0  0  0  0  0  0  0  0  0  0  0  0
    4.6776    0.1961   -0.4852 H   0  0  0  0  0  0  0  0  0  0  0  0
    4.0327    0.0224   -2.1272 H   0  0  0  0  0  0  0  0  0  0  0  0
    3.9541   -1.3839   -0.9819 H   0  0  0  0  0  0  0  0  0  0  0  0
    2.6576    1.2651   -0.6430 H   0  0  0  0  0  0  0  0  0  0  0  0
    2.1190   -1.4274    0.4965 H   0  0  0  0  0  0  0  0  0  0  0  0
    2.8875   -0.0816    1.3488 H   0  0  0  0  0  0  0  0  0  0  0  0
    0.9043    1.2822    1.2638 H   0  0  0  0  0  0  0  0  0  0  0  0
    0.5101   -0.3142    1.9360 H   0  0  0  0  0  0  0  0  0  0  0  0
    0.5303    0.0271   -1.8546 H   0  0  0  0  0  0  0  0  0  0  0  0
    0.3366    1.6370   -1.1223 H   0  0  0  0  0  0  0  0  0  0  0  0
   -3.3456    1.7097   -1.6535 H   0  0  0  0  0  0  0  0  0  0  0  0
   -3.1430   -1.6596    0.4314 H   0  0  0  0  0  0  0  0  0  0  0  0
   -2.0440   -1.6389   -0.9790 H   0  0  0  0  0  0  0  0  0  0  0  0
   -1.4472   -2.3152    0.5993 H   0  0  0  0  0  0  0  0  0  0  0  0
   -1.1614    0.6500    2.5816 H   0  0  0  0  0  0  0  0  0  0  0  0
   -1.2326   -1.2034    2.5003 H   0  0  0  0  0  0  0  0  0  0  0  0
   -2.6888   -0.2074    2.3708 H   0  0  0  0  0  0  0  0  0  0  0  0
  1  2  1  0
  2  3  1  0
  3  4  1  0
  4  5  1  0
  5  6  1  0
  6  7  1  0
  7  8  2  0
  7  9  1  0
  9 10  1  0
 10 11  2  0
 10 12  1  0
 12 13  1  0
 12 14  1  0
 12  5  1  0
  1 15  1  0
  1 16  1  0
  1 17  1  0
  2 18  1  0
  3 19  1  0
  3 20  1  0
  4 21  1  0
  4 22  1  0
  6 23  1  0
  6 24  1  0
  9 25  1  0
 13 26  1  0
 13 27  1  0
 13 28  1  0
 14 29  1  0
 14 30  1  0
 14 31  1  0
M  END
$$$$

     RDKit          3D

 31 31  0  0  0  0  0  0  0  0999 V2000
    3.9593   -0.1598   -0.4062 C   0  0  0  0  0  0  0  0  0  0  0  0
    2.9257   -0.4362   -1.3392 N   0  0  0  0  0  0  0  0  0  0  0  0
    1.6645    0.2769   -1.0943 C   0  0  0  0  0  0  0  0  0  0  0  0
    0.9960   -0.2418    0.1327 C   0  0  0  0  0  0  0  0  0  0  0  0
   -0.2023    0.3337    0.5751 N   0  0  0  0  0  0  0  0  0  0  0  0
   -0.5201   -0.2309    1.8896 C   0  0  0  0  0  0  0  0  0  0  0  0
   -1.7911   -0.9462    1.9709 C   0  0  0  0  0  0  0  0  0  0  0  0
   -2.3944   -1.0046    3.0813 O   0  0  0  0  0  0  0  0  0  0  0  0
   -2.3230   -1.5610    0.8039 N   0  0  0  0  0  0  0  0  0  0  0  0
   -1.9156   -0.9494   -0.4091 C   0  0  0  0  0  0  0  0  0  0  0  0
   -2.0202   -1.4838   -1.5067 O   0  0  0  0  0  0  0  0  0  0  0  0
   -1.3304    0.4348   -0.2437 C   0  0  0  0  0  0  0  0  0  0  0  0
   -1.1612    1.0805   -1.5660 C   0  0  0  0  0  0  0  0  0  0  0  0
   -2.3985    1.2593    0.5078 C   0  0  0  0  0  0  0  0  0  0  0  0
    3.6697    0.0259    0.6178 H   0  0  0  0  0  0  0  0  0  0  0  0
    4.5209    0.7481   -0.7658 H   0  0  0  0  0  0  0  0  0  0  0  0
    4.6902   -1.0071   -0.4517 H   0  0  0  0  0  0  0  0  0  0  0  0
    2.7659   -1.4350   -1.5794 H   0  0  0  0  0  0  0  0  0  0  0  0
    1.0836    0.0666   -2.0388 H   0  0  0  0  0  0  0  0  0  0  0  0
    1.8673    1.3642   -1.0964 H   0  0  0  0  0  0  0  0  0  0  0  0
    1.7559   -0.1634    0.9889 H   0  0  0  0  0  0  0  0  0  0  0  0
    0.8823   -1.3851    0.0040 H   0  0  0  0  0  0  0  0  0  0  0  0
   -0.3884    0.5719    2.6680 H   0  0  0  0  0  0  0  0  0  0  0  0
    0.2746   -0.9875    2.1569 H   0  0  0  0  0  0  0  0  0  0  0  0
   -2.9533   -2.3843    0.8492 H   0  0  0  0  0  0  0  0  0  0  0  0
   -0.3854    1.8331   -1.6004 H   0  0  0  0  0  0  0  0  0  0  0  0
   -1.1663    0.3326   -2.3981 H   0  0  0  0  0  0  0  0  0  0  0  0
   -2.1224    1.6635   -1.7987 H   0  0  0  0  0  0  0  0  0  0  0  0
   -2.0684    1.4855    1.5213 H   0  0  0  0  0  0  0  0  0  0  0  0
   -2.5842    2.2132   -0.0220 H   0  0  0  0  0  0  0  0  0  0  0  0
   -3.3307    0.6865    0.5491 H   0  0  0  0  0  0  0  0  0  0  0  0
  1  2  1  0
  2  3  1  0
  3  4  1  0
  4  5  1  0
  5  6  1  0
  6  7  1  0
  7  8  2  0
  7  9  1  0
  9 10  1  0
 10 11  2  0
 10 12  1  0
 12 13  1  0
 12 14  1  0
 12  5  1  0
  1 15  1  0
  1 16  1  0
  1 17  1  0
  2 18  1  0
  3 19  1  0
  3 20  1  0
  4 21  1  0
  4 22  1  0
  6 23  1  0
  6 24  1  0
  9 25  1  0
 13 26  1  0
 13 27  1  0
 13 28  1  0
 14 29  1  0
 14 30  1  0
 14 31  1  0
M  END
$$$$

     RDKit          3D

 31 31  0  0  0  0  0  0  0  0999 V2000
    3.6680    0.8990    0.7912 C   0  0  0  0  0  0  0  0  0  0  0  0
    3.3976   -0.1605   -0.1303 N   0  0  0  0  0  0  0  0  0  0  0  0
    2.1493   -0.8032    0.1538 C   0  0  0  0  0  0  0  0  0  0  0  0
    1.0048    0.0830   -0.1453 C   0  0  0  0  0  0  0  0  0  0  0  0
   -0.2843   -0.4368    0.0719 N   0  0  0  0  0  0  0  0  0  0  0  0
   -0.7060   -1.4835   -0.7909 C   0  0  0  0  0  0  0  0  0  0  0  0
   -1.9422   -1.2153   -1.5642 C   0  0  0  0  0  0  0  0  0  0  0  0
   -2.4524   -2.1878   -2.1951 O   0  0  0  0  0  0  0  0  0  0  0  0
   -2.5576    0.0672   -1.6207 N   0  0  0  0  0  0  0  0  0  0  0  0
   -2.1073    1.0002   -0.6356 C   0  0  0  0  0  0  0  0  0  0  0  0
   -2.3499    2.2186   -0.7287 O   0  0  0  0  0  0  0  0  0  0  0  0
   -1.3269    0.3871    0.5042 C   0  0  0  0  0  0  0  0  0  0  0  0
   -2.3512   -0.5244    1.2165 C   0  0  0  0  0  0  0  0  0  0  0  0
   -1.0410    1.4850    1.4580 C   0  0  0  0  0  0  0  0  0  0  0  0
    4.4657    0.5514    1.5148 H   0  0  0  0  0  0  0  0  0  0  0  0
    3.9939    1.8412    0.2990 H   0  0  0  0  0  0  0  0  0  0  0  0
    2.7799    1.0548    1.4305 H   0  0  0  0  0  0  0  0  0  0  0  0
    4.1772   -0.7580   -0.4026 H   0  0  0  0  0  0  0  0  0  0  0  0
    2.0994   -1.7002   -0.5335 H   0  0  0  0  0  0  0  0  0  0  0  0
    2.2027   -1.1694    1.1969 H   0  0  0  0  0  0  0  0  0  0  0  0
    1.0895    0.3134   -1.2534 H   0  0  0  0  0  0  0  0  0  0  0  0
    1.1223    1.0469    0.3480 H   0  0  0  0  0  0  0  0  0  0  0  0
   -0.9038   -2.3863   -0.1853 H   0  0  0  0  0  0  0  0  0  0  0  0
    0.0485   -1.7960   -1.5406 H   0  0  0  0  0  0  0  0  0  0  0  0
   -3.2769    0.2967   -2.3244 H   0  0  0  0  0  0  0  0  0  0  0  0
   -2.0774   -0.5211    2.3132 H   0  0  0  0  0  0  0  0  0  0  0  0
   -3.3399   -0.0362    1.1267 H   0  0  0  0  0  0  0  0  0  0  0  0
   -2.3851   -1.5297    0.8205 H   0  0  0  0  0  0  0  0  0  0  0  0
   -1.9127    2.2257    1.4854 H   0  0  0  0  0  0  0  0  0  0  0  0
   -0.1695    2.1036    1.3031 H   0  0  0  0  0  0  0  0  0  0  0  0
   -1.0147    1.1347    2.5347 H   0  0  0  0  0  0  0  0  0  0  0  0
  1  2  1  0
  2  3  1  0
  3  4  1  0
  4  5  1  0
  5  6  1  0
  6  7  1  0
  7  8  2  0
  7  9  1  0
  9 10  1  0
 10 11  2  0
 10 12  1  0
 12 13  1  0
 12 14  1  0
 12  5  1  0
  1 15  1  0
  1 16  1  0
  1 17  1  0
  2 18  1  0
  3 19  1  0
  3 20  1  0
  4 21  1  0
  4 22  1  0
  6 23  1  0
  6 24  1  0
  9 25  1  0
 13 26  1  0
 13 27  1  0
 13 28  1  0
 14 29  1  0
 14 30  1  0
 14 31  1  0
M  END
$$$$

     RDKit          3D

 31 31  0  0  0  0  0  0  0  0999 V2000
    3.1791    0.5736    0.7145 C   0  0  0  0  0  0  0  0  0  0  0  0
    3.0051   -0.6655    0.0876 N   0  0  0  0  0  0  0  0  0  0  0  0
    1.8876   -1.4575    0.2352 C   0  0  0  0  0  0  0  0  0  0  0  0
    0.5666   -1.1850   -0.3554 C   0  0  0  0  0  0  0  0  0  0  0  0
   -0.0741   -0.0011    0.0014 N   0  0  0  0  0  0  0  0  0  0  0  0
    0.3920    1.2309   -0.4915 C   0  0  0  0  0  0  0  0  0  0  0  0
   -0.6913    2.0799   -1.0677 C   0  0  0  0  0  0  0  0  0  0  0  0
   -0.5625    2.6128   -2.1632 O   0  0  0  0  0  0  0  0  0  0  0  0
   -1.8965    2.2546   -0.2918 N   0  0  0  0  0  0  0  0  0  0  0  0
   -2.1004    1.1428    0.6153 C   0  0  0  0  0  0  0  0  0  0  0  0
   -2.7316    1.3246    1.6552 O   0  0  0  0  0  0  0  0  0  0  0  0
   -1.5029   -0.1272    0.1647 C   0  0  0  0  0  0  0  0  0  0  0  0
   -1.8156   -1.2005    1.1552 C   0  0  0  0  0  0  0  0  0  0  0  0
   -2.1849   -0.5042   -1.1364 C   0  0  0  0  0  0  0  0  0  0  0  0
    3.2261    1.3932   -0.0158 H   0  0  0  0  0  0  0  0  0  0  0  0
    2.4632    0.7304    1.5494 H   0  0  0  0  0  0  0  0  0  0  0  0
    4.1956    0.5376    1.2292 H   0  0  0  0  0  0  0  0  0  0  0  0
    3.8778   -1.1172   -0.2647 H   0  0  0  0  0  0  0  0  0  0  0  0
    1.7770   -1.6170    1.3860 H   0  0  0  0  0  0  0  0  0  0  0  0
    2.1689   -2.5247   -0.1407 H   0  0  0  0  0  0  0  0  0  0  0  0
   -0.1405   -2.0761   -0.1849 H   0  0  0  0  0  0  0  0  0  0  0  0
    0.6162   -1.2158   -1.5053 H   0  0  0  0  0  0  0  0  0  0  0  0
    0.7461    1.8456    0.3901 H   0  0  0  0  0  0  0  0  0  0  0  0
    1.2044    1.2153   -1.2314 H   0  0  0  0  0  0  0  0  0  0  0  0
   -2.5254    3.0582   -0.3692 H   0  0  0  0  0  0  0  0  0  0  0  0
   -2.6717   -0.8662    1.7792 H   0  0  0  0  0  0  0  0  0  0  0  0
   -2.1611   -2.1417    0.6318 H   0  0  0  0  0  0  0  0  0  0  0  0
   -0.9972   -1.4277    1.8549 H   0  0  0  0  0  0  0  0  0  0  0  0
   -3.2611   -0.7195   -0.8656 H   0  0  0  0  0  0  0  0  0  0  0  0
   -2.2057    0.3085   -1.8652 H   0  0  0  0  0  0  0  0  0  0  0  0
   -1.7832   -1.4612   -1.5008 H   0  0  0  0  0  0  0  0  0  0  0  0
  1  2  1  0
  2  3  1  0
  3  4  1  0
  4  5  1  0
  5  6  1  0
  6  7  1  0
  7  8  2  0
  7  9  1  0
  9 10  1  0
 10 11  2  0
 10 12  1  0
 12 13  1  0
 12 14  1  0
 12  5  1  0
  1 15  1  0
  1 16  1  0
  1 17  1  0
  2 18  1  0
  3 19  1  0
  3 20  1  0
  4 21  1  0
  4 22  1  0
  6 23  1  0
  6 24  1  0
  9 25  1  0
 13 26  1  0
 13 27  1  0
 13 28  1  0
 14 29  1  0
 14 30  1  0
 14 31  1  0
M  END
$$$$

     RDKit          3D

 31 31  0  0  0  0  0  0  0  0999 V2000
    4.0938    0.0572    0.3263 C   0  0  0  0  0  0  0  0  0  0  0  0
    2.7235   -0.4708    0.4397 N   0  0  0  0  0  0  0  0  0  0  0  0
    1.8771    0.6845    0.6095 C   0  0  0  0  0  0  0  0  0  0  0  0
    0.4172    0.3545    0.7540 C   0  0  0  0  0  0  0  0  0  0  0  0
   -0.1460   -0.3433   -0.3859 N   0  0  0  0  0  0  0  0  0  0  0  0
   -0.1854    0.5409   -1.5384 C   0  0  0  0  0  0  0  0  0  0  0  0
   -0.8866    1.8071   -1.2117 C   0  0  0  0  0  0  0  0  0  0  0  0
   -0.3970    2.8982   -1.5747 O   0  0  0  0  0  0  0  0  0  0  0  0
   -2.1002    1.7115   -0.4898 N   0  0  0  0  0  0  0  0  0  0  0  0
   -2.4120    0.4532    0.0866 C   0  0  0  0  0  0  0  0  0  0  0  0
   -3.4894    0.3258    0.7165 O   0  0  0  0  0  0  0  0  0  0  0  0
   -1.4911   -0.7316   -0.0349 C   0  0  0  0  0  0  0  0  0  0  0  0
   -2.1360   -1.6838   -0.9851 C   0  0  0  0  0  0  0  0  0  0  0  0
   -1.5260   -1.3953    1.3445 C   0  0  0  0  0  0  0  0  0  0  0  0
    4.8098   -0.7997    0.3216 H   0  0  0  0  0  0  0  0  0  0  0  0
    4.2804    0.6647    1.2549 H   0  0  0  0  0  0  0  0  0  0  0  0
    4.1749    0.6688   -0.5885 H   0  0  0  0  0  0  0  0  0  0  0  0
    2.4950   -1.0191   -0.3993 H   0  0  0  0  0  0  0  0  0  0  0  0
    2.0777    1.4113   -0.2013 H   0  0  0  0  0  0  0  0  0  0  0  0
    2.1866    1.1776    1.5545 H   0  0  0  0  0  0  0  0  0  0  0  0
    0.3295   -0.3347    1.6312 H   0  0  0  0  0  0  0  0  0  0  0  0
   -0.1195    1.3091    0.9259 H   0  0  0  0  0  0  0  0  0  0  0  0
   -0.7676    0.0557   -2.3484 H   0  0  0  0  0  0  0  0  0  0  0  0
    0.8261    0.7196   -1.9627 H   0  0  0  0  0  0  0  0  0  0  0  0
   -2.7208    2.5437   -0.3999 H   0  0  0  0  0  0  0  0  0  0  0  0
   -3.2320   -1.7131   -0.7042 H   0  0  0  0  0  0  0  0  0  0  0  0
   -2.1138   -1.4243   -2.0380 H   0  0  0  0  0  0  0  0  0  0  0  0
   -1.7995   -2.7453   -0.7964 H   0  0  0  0  0  0  0  0  0  0  0  0
   -1.6009   -0.6598    2.1664 H   0  0  0  0  0  0  0  0  0  0  0  0
   -2.4903   -1.9792    1.3707 H   0  0  0  0  0  0  0  0  0  0  0  0
   -0.6777   -2.0835    1.4019 H   0  0  0  0  0  0  0  0  0  0  0  0
  1  2  1  0
  2  3  1  0
  3  4  1  0
  4  5  1  0
  5  6  1  0
  6  7  1  0
  7  8  2  0
  7  9  1  0
  9 10  1  0
 10 11  2  0
 10 12  1  0
 12 13  1  0
 12 14  1  0
 12  5  1  0
  1 15  1  0
  1 16  1  0
  1 17  1  0
  2 18  1  0
  3 19  1  0
  3 20  1  0
  4 21  1  0
  4 22  1  0
  6 23  1  0
  6 24  1  0
  9 25  1  0
 13 26  1  0
 13 27  1  0
 13 28  1  0
 14 29  1  0
 14 30  1  0
 14 31  1  0
M  END
$$$$

     RDKit          3D

 31 31  0  0  0  0  0  0  0  0999 V2000
    3.9338   -0.6330   -0.3323 C   0  0  0  0  0  0  0  0  0  0  0  0
    3.1152    0.3299   -0.9882 N   0  0  0  0  0  0  0  0  0  0  0  0
    1.9172    0.7187   -0.2646 C   0  0  0  0  0  0  0  0  0  0  0  0
    0.9638   -0.4224   -0.2163 C   0  0  0  0  0  0  0  0  0  0  0  0
   -0.3018   -0.1739    0.4457 N   0  0  0  0  0  0  0  0  0  0  0  0
   -0.8166   -1.4853    0.8607 C   0  0  0  0  0  0  0  0  0  0  0  0
   -2.2587   -1.6229    0.9032 C   0  0  0  0  0  0  0  0  0  0  0  0
   -2.9173   -2.0368    1.8665 O   0  0  0  0  0  0  0  0  0  0  0  0
   -2.9667   -1.2347   -0.2931 N   0  0  0  0  0  0  0  0  0  0  0  0
   -2.2077   -0.3118   -1.0670 C   0  0  0  0  0  0  0  0  0  0  0  0
   -2.3328   -0.2438   -2.3147 O   0  0  0  0  0  0  0  0  0  0  0  0
   -1.2660    0.5555   -0.2769 C   0  0  0  0  0  0  0  0  0  0  0  0
   -0.8214    1.6142   -1.2258 C   0  0  0  0  0  0  0  0  0  0  0  0
   -2.1170    1.2933    0.7744 C   0  0  0  0  0  0  0  0  0  0  0  0
    4.7265   -0.9624   -1.0445 H   0  0  0  0  0  0  0  0  0  0  0  0
    3.3537   -1.5242   -0.0833 H   0  0  0  0  0  0  0  0  0  0  0  0
    4.4425   -0.2738    0.5893 H   0  0  0  0  0  0  0  0  0  0  0  0
    3.6399    1.1643   -1.3347 H   0  0  0  0  0  0  0  0  0  0  0  0
    1.5674    1.6706   -0.6675 H   0  0  0  0  0  0  0  0  0  0  0  0
    2.1923    0.9683    0.8177 H   0  0  0  0  0  0  0  0  0  0  0  0
    1.4385   -1.2524    0.3592 H   0  0  0  0  0  0  0  0  0  0  0  0
    0.7974   -0.8489   -1.2390 H   0  0  0  0  0  0  0  0  0  0  0  0
   -0.3591   -2.2936    0.2601 H   0  0  0  0  0  0  0  0  0  0  0  0
   -0.3663   -1.6070    1.8956 H   0  0  0  0  0  0  0  0  0  0  0  0
   -3.8845   -1.5724   -0.5700 H   0  0  0  0  0  0  0  0  0  0  0  0
   -0.1873    1.3169   -2.0513 H   0  0  0  0  0  0  0  0  0  0  0  0
   -0.5541    2.5246   -0.6722 H   0  0  0  0  0  0  0  0  0  0  0  0
   -1.7913    1.9382   -1.7658 H   0  0  0  0  0  0  0  0  0  0  0  0
   -1.7700    2.3335    0.8623 H   0  0  0  0  0  0  0  0  0  0  0  0
   -3.1878    1.2297    0.4945 H   0  0  0  0  0  0  0  0  0  0  0  0
   -1.9817    0.8417    1.7826 H   0  0  0  0  0  0  0  0  0  0  0  0
  1  2  1  0
  2  3  1  0
  3  4  1  0
  4  5  1  0
  5  6  1  0
  6  7  1  0
  7  8  2  0
  7  9  1  0
  9 10  1  0
 10 11  2  0
 10 12  1  0
 12 13  1  0
 12 14  1  0
 12  5  1  0
  1 15  1  0
  1 16  1  0
  1 17  1  0
  2 18  1  0
  3 19  1  0
  3 20  1  0
  4 21  1  0
  4 22  1  0
  6 23  1  0
  6 24  1  0
  9 25  1  0
 13 26  1  0
 13 27  1  0
 13 28  1  0
 14 29  1  0
 14 30  1  0
 14 31  1  0
M  END
$$$$

     RDKit          3D

 31 31  0  0  0  0  0  0  0  0999 V2000
    3.3794   -0.4027    0.8681 C   0  0  0  0  0  0  0  0  0  0  0  0
    2.3723    0.6066    1.0938 N   0  0  0  0  0  0  0  0  0  0  0  0
    1.8091    1.1384   -0.1006 C   0  0  0  0  0  0  0  0  0  0  0  0
    0.9475    0.2149   -0.8936 C   0  0  0  0  0  0  0  0  0  0  0  0
   -0.1994   -0.2921   -0.2746 N   0  0  0  0  0  0  0  0  0  0  0  0
   -0.0430   -1.1886    0.7769 C   0  0  0  0  0  0  0  0  0  0  0  0
   -1.1473   -2.0980    1.0577 C   0  0  0  0  0  0  0  0  0  0  0  0
   -0.9726   -3.1224    1.7587 O   0  0  0  0  0  0  0  0  0  0  0  0
   -2.4284   -1.8185    0.5309 N   0  0  0  0  0  0  0  0  0  0  0  0
   -2.5915   -0.6485   -0.2378 C   0  0  0  0  0  0  0  0  0  0  0  0
   -3.7269   -0.3550   -0.6709 O   0  0  0  0  0  0  0  0  0  0  0  0
   -1.4652    0.2538   -0.5555 C   0  0  0  0  0  0  0  0  0  0  0  0
   -1.6352    0.6164   -2.0397 C   0  0  0  0  0  0  0  0  0  0  0  0
   -1.7299    1.5208    0.2759 C   0  0  0  0  0  0  0  0  0  0  0  0
    4.4098    0.0016    1.0697 H   0  0  0  0  0  0  0  0  0  0  0  0
    3.3559   -0.6975   -0.1940 H   0  0  0  0  0  0  0  0  0  0  0  0
    3.2829   -1.2700    1.5546 H   0  0  0  0  0  0  0  0  0  0  0  0
    2.8247    1.3561    1.6760 H   0  0  0  0  0  0  0  0  0  0  0  0
    1.3217    2.0984    0.1537 H   0  0  0  0  0  0  0  0  0  0  0  0
    2.6680    1.4257   -0.7742 H   0  0  0  0  0  0  0  0  0  0  0  0
    1.6122   -0.6561   -1.2016 H   0  0  0  0  0  0  0  0  0  0  0  0
    0.7394    0.7126   -1.8774 H   0  0  0  0  0  0  0  0  0  0  0  0
    0.8841   -1.8195    0.6213 H   0  0  0  0  0  0  0  0  0  0  0  0
    0.1557   -0.6176    1.7134 H   0  0  0  0  0  0  0  0  0  0  0  0
   -3.2460   -2.4783    0.7112 H   0  0  0  0  0  0  0  0  0  0  0  0
   -1.1781   -0.1445   -2.6829 H   0  0  0  0  0  0  0  0  0  0  0  0
   -2.7139    0.6845   -2.3001 H   0  0  0  0  0  0  0  0  0  0  0  0
   -1.1832    1.6351   -2.2093 H   0  0  0  0  0  0  0  0  0  0  0  0
   -1.6367    1.1856    1.3356 H   0  0  0  0  0  0  0  0  0  0  0  0
   -2.7783    1.8100    0.0701 H   0  0  0  0  0  0  0  0  0  0  0  0
   -1.0872    2.3488    0.0033 H   0  0  0  0  0  0  0  0  0  0  0  0
  1  2  1  0
  2  3  1  0
  3  4  1  0
  4  5  1  0
  5  6  1  0
  6  7  1  0
  7  8  2  0
  7  9  1  0
  9 10  1  0
 10 11  2  0
 10 12  1  0
 12 13  1  0
 12 14  1  0
 12  5  1  0
  1 15  1  0
  1 16  1  0
  1 17  1  0
  2 18  1  0
  3 19  1  0
  3 20  1  0
  4 21  1  0
  4 22  1  0
  6 23  1  0
  6 24  1  0
  9 25  1  0
 13 26  1  0
 13 27  1  0
 13 28  1  0
 14 29  1  0
 14 30  1  0
 14 31  1  0
M  END
$$$$

     RDKit          3D

 31 31  0  0  0  0  0  0  0  0999 V2000
    3.8669    0.4930   -0.6278 C   0  0  0  0  0  0  0  0  0  0  0  0
    2.6243   -0.2438   -0.7493 N   0  0  0  0  0  0  0  0  0  0  0  0
    1.8438   -0.0387    0.4738 C   0  0  0  0  0  0  0  0  0  0  0  0
    0.6200   -0.8776    0.5015 C   0  0  0  0  0  0  0  0  0  0  0  0
   -0.3583   -0.6746   -0.5102 N   0  0  0  0  0  0  0  0  0  0  0  0
   -1.2259   -1.8540   -0.4724 C   0  0  0  0  0  0  0  0  0  0  0  0
   -2.4970   -1.6633    0.2312 C   0  0  0  0  0  0  0  0  0  0  0  0
   -2.9173   -2.3532    1.1830 O   0  0  0  0  0  0  0  0  0  0  0  0
   -3.2948   -0.5659   -0.2673 N   0  0  0  0  0  0  0  0  0  0  0  0
   -2.4909    0.4257   -0.9132 C   0  0  0  0  0  0  0  0  0  0  0  0
   -2.9889    1.1150   -1.8298 O   0  0  0  0  0  0  0  0  0  0  0  0
   -1.0987    0.5506   -0.4131 C   0  0  0  0  0  0  0  0  0  0  0  0
   -1.2308    1.0917    0.9984 C   0  0  0  0  0  0  0  0  0  0  0  0
   -0.4514    1.6496   -1.2581 C   0  0  0  0  0  0  0  0  0  0  0  0
    4.7502   -0.1764   -0.7605 H   0  0  0  0  0  0  0  0  0  0  0  0
    3.9910    1.2993   -1.3654 H   0  0  0  0  0  0  0  0  0  0  0  0
    4.0034    0.9410    0.3817 H   0  0  0  0  0  0  0  0  0  0  0  0
    2.8727   -1.2632   -0.7485 H   0  0  0  0  0  0  0  0  0  0  0  0
    2.4996   -0.3365    1.3137 H   0  0  0  0  0  0  0  0  0  0  0  0
    1.6991    1.0449    0.5684 H   0  0  0  0  0  0  0  0  0  0  0  0
    0.2123   -0.8658    1.5433 H   0  0  0  0  0  0  0  0  0  0  0  0
    0.9746   -1.9447    0.3893 H   0  0  0  0  0  0  0  0  0  0  0  0
   -1.4008   -2.2183   -1.5299 H   0  0  0  0  0  0  0  0  0  0  0  0
   -0.6914   -2.6967    0.0094 H   0  0  0  0  0  0  0  0  0  0  0  0
   -4.3126   -0.5185   -0.1685 H   0  0  0  0  0  0  0  0  0  0  0  0
   -1.4395    0.2935    1.7199 H   0  0  0  0  0  0  0  0  0  0  0  0
   -2.1668    1.7366    1.0320 H   0  0  0  0  0  0  0  0  0  0  0  0
   -0.4331    1.7936    1.2906 H   0  0  0  0  0  0  0  0  0  0  0  0
   -1.2106    2.1924   -1.8903 H   0  0  0  0  0  0  0  0  0  0  0  0
   -0.0214    2.4342   -0.6121 H   0  0  0  0  0  0  0  0  0  0  0  0
    0.2722    1.2301   -1.9644 H   0  0  0  0  0  0  0  0  0  0  0  0
  1  2  1  0
  2  3  1  0
  3  4  1  0
  4  5  1  0
  5  6  1  0
  6  7  1  0
  7  8  2  0
  7  9  1  0
  9 10  1  0
 10 11  2  0
 10 12  1  0
 12 13  1  0
 12 14  1  0
 12  5  1  0
  1 15  1  0
  1 16  1  0
  1 17  1  0
  2 18  1  0
  3 19  1  0
  3 20  1  0
  4 21  1  0
  4 22  1  0
  6 23  1  0
  6 24  1  0
  9 25  1  0
 13 26  1  0
 13 27  1  0
 13 28  1  0
 14 29  1  0
 14 30  1  0
 14 31  1  0
M  END
$$$$
