
     RDKit          3D

 31 30  0  0  0  0  0  0  0  0999 V2000
    5.4662   -0.0812   -0.0219 C   0  0  0  0  0  0  0  0  0  0  0  0
    4.1407   -0.0952   -0.6453 N   0  0  0  0  0  0  0  0  0  0  0  0
    3.0155   -0.5242    0.0687 C   0  0  0  0  0  0  0  0  0  0  0  0
    3.1979   -0.8991    1.2777 O   0  0  0  0  0  0  0  0  0  0  0  0
    1.6465   -0.5861   -0.4343 C   0  0  0  0  0  0  0  0  0  0  0  0
    0.6420   -1.0780    0.5449 C   0  0  0  0  0  0  0  0  0  0  0  0
   -0.7501   -1.0920   -0.1046 C   0  0  0  0  0  0  0  0  0  0  0  0
   -1.0656    0.2132   -0.4964 N   0  0  0  0  0  0  0  0  0  0  0  0
   -2.2735    0.4919   -1.1526 C   0  0  0  0  0  0  0  0  0  0  0  0
   -3.4614    0.3225   -0.2531 C   0  0  1  0  0  0  0  0  0  0  0  0
   -3.5951   -0.9522    0.2299 O   0  0  0  0  0  0  0  0  0  0  0  0
   -3.2720    1.2351    0.9650 C   0  0  0  0  0  0  0  0  0  0  0  0
   -3.1362    2.5233    0.4846 O   0  0  0  0  0  0  0  0  0  0  0  0
    5.6121   -0.9465    0.6348 H   0  0  0  0  0  0  0  0  0  0  0  0
    5.5746    0.8753    0.4990 H   0  0  0  0  0  0  0  0  0  0  0  0
    6.2538   -0.1350   -0.8289 H   0  0  0  0  0  0  0  0  0  0  0  0
    4.0237    0.2127   -1.6223 H   0  0  0  0  0  0  0  0  0  0  0  0
    1.3490    0.3826   -0.8607 H   0  0  0  0  0  0  0  0  0  0  0  0
    1.6555   -1.3130   -1.3004 H   0  0  0  0  0  0  0  0  0  0  0  0
    0.5707   -0.3597    1.3848 H   0  0  0  0  0  0  0  0  0  0  0  0
    0.8100   -2.1043    0.8976 H   0  0  0  0  0  0  0  0  0  0  0  0
   -1.4350   -1.4445    0.7138 H   0  0  0  0  0  0  0  0  0  0  0  0
   -0.7263   -1.8596   -0.8914 H   0  0  0  0  0  0  0  0  0  0  0  0
   -0.5513    0.9920   -0.0828 H   0  0  0  0  0  0  0  0  0  0  0  0
   -2.2556    1.5595   -1.5255 H   0  0  0  0  0  0  0  0  0  0  0  0
   -2.4548   -0.0999   -2.0792 H   0  0  0  0  0  0  0  0  0  0  0  0
   -4.4073    0.6407   -0.7638 H   0  0  0  0  0  0  0  0  0  0  0  0
   -4.3453   -1.0959    0.8234 H   0  0  0  0  0  0  0  0  0  0  0  0
   -2.3559    0.9178    1.4837 H   0  0  0  0  0  0  0  0  0  0  0  0
   -4.1610    1.1275    1.6191 H   0  0  0  0  0  0  0  0  0  0  0  0
   -3.7119    3.1722    0.9734 H   0  0  0  0  0  0  0  0  0  0  0  0
  1  2  1  0
  2  3  1  0
  3  4  2  0
  3  5  1  0
  5  6  1  0
  6  7  1  0
  7  8  1  0
  8  9  1  0
  9 10  1  0
 10 11  1  0
 10 12  1  0
 12 13  1  0
  1 14  1  0
  1 15  1  0
  1 16  1  0
  2 17  1  0
  5 18  1  0
  5 19  1  0
  6 20  1  0
  6 21  1  0
  7 22  1  0
  7 23  1  0
  8 24  1  0
  9 25  1  0
  9 26  1  0
 10 27  1  6
 11 28  1  0
 12 29  1  0
 12 30  1  0
 13 31  1  0
M  END
$$$$

     RDKit          3D

 31 30  0  0  0  0  0  0  0  0999 V2000
   -5.0496    1.1247    0.4338 C   0  0  0  0  0  0  0  0  0  0  0  0
   -4.0364    0.2316    1.0099 N   0  0  0  0  0  0  0  0  0  0  0  0
   -2.8597   -0.0841    0.2846 C   0  0  0  0  0  0  0  0  0  0  0  0
   -2.7149    0.4200   -0.8518 O   0  0  0  0  0  0  0  0  0  0  0  0
   -1.8286   -0.9751    0.8356 C   0  0  0  0  0  0  0  0  0  0  0  0
   -0.6239   -1.1637   -0.0155 C   0  0  0  0  0  0  0  0  0  0  0  0
    0.1396    0.0886   -0.3054 C   0  0  0  0  0  0  0  0  0  0  0  0
    1.2940   -0.1183   -1.1288 N   0  0  0  0  0  0  0  0  0  0  0  0
    2.3633   -0.8510   -0.5372 C   0  0  0  0  0  0  0  0  0  0  0  0
    3.0669   -0.1376    0.5841 C   0  0  1  0  0  0  0  0  0  0  0  0
    4.0845   -0.9516    1.0638 O   0  0  0  0  0  0  0  0  0  0  0  0
    3.6783    1.1658    0.1420 C   0  0  0  0  0  0  0  0  0  0  0  0
    2.7230    2.0520   -0.3548 O   0  0  0  0  0  0  0  0  0  0  0  0
   -4.8501    1.2665   -0.6499 H   0  0  0  0  0  0  0  0  0  0  0  0
   -6.0714    0.7375    0.5790 H   0  0  0  0  0  0  0  0  0  0  0  0
   -4.9484    2.1143    0.9075 H   0  0  0  0  0  0  0  0  0  0  0  0
   -4.2164   -0.1599    1.9716 H   0  0  0  0  0  0  0  0  0  0  0  0
   -2.2379   -2.0097    1.0418 H   0  0  0  0  0  0  0  0  0  0  0  0
   -1.4950   -0.6339    1.8611 H   0  0  0  0  0  0  0  0  0  0  0  0
    0.0759   -1.8246    0.5732 H   0  0  0  0  0  0  0  0  0  0  0  0
   -0.8699   -1.7364   -0.9376 H   0  0  0  0  0  0  0  0  0  0  0  0
    0.5023    0.5169    0.6573 H   0  0  0  0  0  0  0  0  0  0  0  0
   -0.4607    0.8907   -0.7955 H   0  0  0  0  0  0  0  0  0  0  0  0
    1.1025   -0.3429   -2.1150 H   0  0  0  0  0  0  0  0  0  0  0  0
    3.1378   -1.0137   -1.3363 H   0  0  0  0  0  0  0  0  0  0  0  0
    2.0755   -1.8691   -0.1690 H   0  0  0  0  0  0  0  0  0  0  0  0
    2.3367    0.0726    1.4002 H   0  0  0  0  0  0  0  0  0  0  0  0
    4.0093   -1.8705    0.7522 H   0  0  0  0  0  0  0  0  0  0  0  0
    4.5372    1.0347   -0.5268 H   0  0  0  0  0  0  0  0  0  0  0  0
    4.0904    1.6506    1.0745 H   0  0  0  0  0  0  0  0  0  0  0  0
    3.0456    2.3753   -1.2368 H   0  0  0  0  0  0  0  0  0  0  0  0
  1  2  1  0
  2  3  1  0
  3  4  2  0
  3  5  1  0
  5  6  1  0
  6  7  1  0
  7  8  1  0
  8  9  1  0
  9 10  1  0
 10 11  1  0
 10 12  1  0
 12 13  1  0
  1 14  1  0
  1 15  1  0
  1 16  1  0
  2 17  1  0
  5 18  1  0
  5 19  1  0
  6 20  1  0
  6 21  1  0
  7 22  1  0
  7 23  1  0
  8 24  1  0
  9 25  1  0
  9 26  1  0
 10 27  1  1
 11 28  1  0
 12 29  1  0
 12 30  1  0
 13 31  1  0
M  END
$$$$

     RDKit          3D

 31 30  0  0  0  0  0  0  0  0999 V2000
   -4.9134   -0.8051    0.4569 C   0  0  0  0  0  0  0  0  0  0  0  0
   -3.9293   -0.6229   -0.5846 N   0  0  0  0  0  0  0  0  0  0  0  0
   -2.7856    0.2103   -0.4165 C   0  0  0  0  0  0  0  0  0  0  0  0
   -2.6929    0.7773    0.7073 O   0  0  0  0  0  0  0  0  0  0  0  0
   -1.7999    0.3702   -1.5135 C   0  0  0  0  0  0  0  0  0  0  0  0
   -0.6630    1.2562   -1.1466 C   0  0  0  0  0  0  0  0  0  0  0  0
    0.1672    0.8147    0.0058 C   0  0  0  0  0  0  0  0  0  0  0  0
    0.7921   -0.4714   -0.1851 N   0  0  0  0  0  0  0  0  0  0  0  0
    1.5861   -0.8854    0.9279 C   0  0  0  0  0  0  0  0  0  0  0  0
    2.8222   -0.0496    1.1262 C   0  0  1  0  0  0  0  0  0  0  0  0
    3.5209   -0.5314    2.2241 O   0  0  0  0  0  0  0  0  0  0  0  0
    3.7057   -0.1586   -0.0760 C   0  0  0  0  0  0  0  0  0  0  0  0
    4.8799    0.5911    0.0933 O   0  0  0  0  0  0  0  0  0  0  0  0
   -5.9431   -0.8769    0.0253 H   0  0  0  0  0  0  0  0  0  0  0  0
   -4.8711    0.1023    1.1228 H   0  0  0  0  0  0  0  0  0  0  0  0
   -4.6979   -1.6920    1.0912 H   0  0  0  0  0  0  0  0  0  0  0  0
   -4.0665   -1.1178   -1.4819 H   0  0  0  0  0  0  0  0  0  0  0  0
   -1.4885   -0.6243   -1.8908 H   0  0  0  0  0  0  0  0  0  0  0  0
   -2.3553    0.8780   -2.3536 H   0  0  0  0  0  0  0  0  0  0  0  0
   -1.1211    2.2462   -0.8422 H   0  0  0  0  0  0  0  0  0  0  0  0
   -0.0497    1.5181   -2.0377 H   0  0  0  0  0  0  0  0  0  0  0  0
    0.9946    1.5578    0.1154 H   0  0  0  0  0  0  0  0  0  0  0  0
   -0.3885    0.7949    0.9465 H   0  0  0  0  0  0  0  0  0  0  0  0
    1.2633   -0.5638   -1.1045 H   0  0  0  0  0  0  0  0  0  0  0  0
    1.8810   -1.9461    0.8027 H   0  0  0  0  0  0  0  0  0  0  0  0
    0.9621   -0.7736    1.8489 H   0  0  0  0  0  0  0  0  0  0  0  0
    2.5209    0.9930    1.3541 H   0  0  0  0  0  0  0  0  0  0  0  0
    4.0779    0.1782    2.6347 H   0  0  0  0  0  0  0  0  0  0  0  0
    3.9668   -1.2329   -0.2140 H   0  0  0  0  0  0  0  0  0  0  0  0
    3.1429    0.2169   -0.9563 H   0  0  0  0  0  0  0  0  0  0  0  0
    5.4825    0.4593   -0.6798 H   0  0  0  0  0  0  0  0  0  0  0  0
  1  2  1  0
  2  3  1  0
  3  4  2  0
  3  5  1  0
  5  6  1  0
  6  7  1  0
  7  8  1  0
  8  9  1  0
  9 10  1  0
 10 11  1  0
 10 12  1  0
 12 13  1  0
  1 14  1  0
  1 15  1  0
  1 16  1  0
  2 17  1  0
  5 18  1  0
  5 19  1  0
  6 20  1  0
  6 21  1  0
  7 22  1  0
  7 23  1  0
  8 24  1  0
  9 25  1  0
  9 26  1  0
 10 27  1  1
 11 28  1  0
 12 29  1  0
 12 30  1  0
 13 31  1  0
M  END
$$$$

     RDKit          3D

 31 30  0  0  0  0  0  0  0  0999 V2000
   -5.1193   -0.3129   -0.1050 C   0  0  0  0  0  0  0  0  0  0  0  0
   -3.9713    0.5391    0.0300 N   0  0  0  0  0  0  0  0  0  0  0  0
   -2.7440    0.1121    0.6169 C   0  0  0  0  0  0  0  0  0  0  0  0
   -2.7146   -1.0780    1.0221 O   0  0  0  0  0  0  0  0  0  0  0  0
   -1.6391    1.0729    0.6997 C   0  0  0  0  0  0  0  0  0  0  0  0
   -0.3817    0.5601    1.3072 C   0  0  0  0  0  0  0  0  0  0  0  0
    0.2720   -0.5854    0.6294 C   0  0  0  0  0  0  0  0  0  0  0  0
    0.6735   -0.3794   -0.7123 N   0  0  0  0  0  0  0  0  0  0  0  0
    1.7300    0.5239   -0.9671 C   0  0  0  0  0  0  0  0  0  0  0  0
    3.0921    0.1381   -0.5162 C   0  0  1  0  0  0  0  0  0  0  0  0
    3.1734   -0.0611    0.8574 O   0  0  0  0  0  0  0  0  0  0  0  0
    3.6695   -1.0303   -1.2764 C   0  0  0  0  0  0  0  0  0  0  0  0
    5.0075   -1.1682   -0.9047 O   0  0  0  0  0  0  0  0  0  0  0  0
   -5.0766   -0.8012   -1.1089 H   0  0  0  0  0  0  0  0  0  0  0  0
   -5.1674   -1.1047    0.6710 H   0  0  0  0  0  0  0  0  0  0  0  0
   -6.0547    0.2888   -0.0277 H   0  0  0  0  0  0  0  0  0  0  0  0
   -4.0805    1.5295   -0.3371 H   0  0  0  0  0  0  0  0  0  0  0  0
   -1.4576    1.5998   -0.2767 H   0  0  0  0  0  0  0  0  0  0  0  0
   -1.9961    1.9046    1.3772 H   0  0  0  0  0  0  0  0  0  0  0  0
   -0.6468    0.2178    2.3499 H   0  0  0  0  0  0  0  0  0  0  0  0
    0.2976    1.4231    1.4664 H   0  0  0  0  0  0  0  0  0  0  0  0
    1.0826   -0.9511    1.3052 H   0  0  0  0  0  0  0  0  0  0  0  0
   -0.4631   -1.4455    0.6268 H   0  0  0  0  0  0  0  0  0  0  0  0
   -0.1359   -0.1720   -1.3047 H   0  0  0  0  0  0  0  0  0  0  0  0
    1.4853    1.5457   -0.5681 H   0  0  0  0  0  0  0  0  0  0  0  0
    1.7540    0.6867   -2.0853 H   0  0  0  0  0  0  0  0  0  0  0  0
    3.7921    1.0026   -0.7161 H   0  0  0  0  0  0  0  0  0  0  0  0
    3.5421   -0.9154    1.1345 H   0  0  0  0  0  0  0  0  0  0  0  0
    3.6697   -0.8568   -2.3717 H   0  0  0  0  0  0  0  0  0  0  0  0
    3.0832   -1.9457   -1.0911 H   0  0  0  0  0  0  0  0  0  0  0  0
    5.3239   -0.3369   -0.4941 H   0  0  0  0  0  0  0  0  0  0  0  0
  1  2  1  0
  2  3  1  0
  3  4  2  0
  3  5  1  0
  5  6  1  0
  6  7  1  0
  7  8  1  0
  8  9  1  0
  9 10  1  0
 10 11  1  0
 10 12  1  0
 12 13  1  0
  1 14  1  0
  1 15  1  0
  1 16  1  0
  2 17  1  0
  5 18  1  0
  5 19  1  0
  6 20  1  0
  6 21  1  0
  7 22  1  0
  7 23  1  0
  8 24  1  0
  9 25  1  0
  9 26  1  0
 10 27  1  1
 11 28  1  0
 12 29  1  0
 12 30  1  0
 13 31  1  0
M  END
$$$$

     RDKit          3D

 31 30  0  0  0  0  0  0  0  0999 V2000
    4.3304    0.7489   -1.6431 C   0  0  0  0  0  0  0  0  0  0  0  0
    3.7008   -0.1838   -0.7094 N   0  0  0  0  0  0  0  0  0  0  0  0
    2.6803    0.2348    0.1819 C   0  0  0  0  0  0  0  0  0  0  0  0
    2.3148    1.4192    0.1664 O   0  0  0  0  0  0  0  0  0  0  0  0
    2.0944   -0.7552    1.0915 C   0  0  0  0  0  0  0  0  0  0  0  0
    0.9681   -0.2369    1.9373 C   0  0  0  0  0  0  0  0  0  0  0  0
   -0.1872    0.2245    1.0543 C   0  0  0  0  0  0  0  0  0  0  0  0
   -0.6732   -0.8235    0.2617 N   0  0  0  0  0  0  0  0  0  0  0  0
   -1.6603   -0.5234   -0.6789 C   0  0  0  0  0  0  0  0  0  0  0  0
   -2.9695   -0.1622   -0.0387 C   0  0  1  0  0  0  0  0  0  0  0  0
   -2.8430    0.9624    0.7349 O   0  0  0  0  0  0  0  0  0  0  0  0
   -4.0484    0.0327   -1.0962 C   0  0  0  0  0  0  0  0  0  0  0  0
   -3.7340    1.0889   -1.9203 O   0  0  0  0  0  0  0  0  0  0  0  0
    3.5697    1.0325   -2.3846 H   0  0  0  0  0  0  0  0  0  0  0  0
    4.5383    1.6670   -1.0287 H   0  0  0  0  0  0  0  0  0  0  0  0
    5.2421    0.3168   -2.0648 H   0  0  0  0  0  0  0  0  0  0  0  0
    4.0059   -1.1669   -0.6991 H   0  0  0  0  0  0  0  0  0  0  0  0
    1.7356   -1.6395    0.4990 H   0  0  0  0  0  0  0  0  0  0  0  0
    2.8940   -1.1304    1.7748 H   0  0  0  0  0  0  0  0  0  0  0  0
    0.6538   -0.9339    2.7203 H   0  0  0  0  0  0  0  0  0  0  0  0
    1.3218    0.7024    2.4566 H   0  0  0  0  0  0  0  0  0  0  0  0
    0.1027    1.1518    0.5680 H   0  0  0  0  0  0  0  0  0  0  0  0
   -1.0017    0.4653    1.8214 H   0  0  0  0  0  0  0  0  0  0  0  0
   -0.2978   -1.7592    0.3501 H   0  0  0  0  0  0  0  0  0  0  0  0
   -1.3738    0.3849   -1.3063 H   0  0  0  0  0  0  0  0  0  0  0  0
   -1.7974   -1.3124   -1.4682 H   0  0  0  0  0  0  0  0  0  0  0  0
   -3.2611   -1.0338    0.6040 H   0  0  0  0  0  0  0  0  0  0  0  0
   -3.6504    1.1968    1.2258 H   0  0  0  0  0  0  0  0  0  0  0  0
   -5.0133    0.1728   -0.5720 H   0  0  0  0  0  0  0  0  0  0  0  0
   -4.1012   -0.9292   -1.6640 H   0  0  0  0  0  0  0  0  0  0  0  0
   -3.5404    0.7884   -2.8438 H   0  0  0  0  0  0  0  0  0  0  0  0
  1  2  1  0
  2  3  1  0
  3  4  2  0
  3  5  1  0
  5  6  1  0
  6  7  1  0
  7  8  1  0
  8  9  1  0
  9 10  1  0
 10 11  1  0
 10 12  1  0
 12 13  1  0
  1 14  1  0
  1 15  1  0
  1 16  1  0
  2 17  1  0
  5 18  1  0
  5 19  1  0
  6 20  1  0
  6 21  1  0
  7 22  1  0
  7 23  1  0
  8 24  1  0
  9 25  1  0
  9 26  1  0
 10 27  1  1
 11 28  1  0
 12 29  1  0
 12 30  1  0
 13 31  1  0
M  END
$$$$

     RDKit          3D

 31 30  0  0  0  0  0  0  0  0999 V2000
    4.2714    1.6753    0.9072 C   0  0  0  0  0  0  0  0  0  0  0  0
    3.9011    0.3003    0.6313 N   0  0  0  0  0  0  0  0  0  0  0  0
    2.5696   -0.0363    0.2443 C   0  0  0  0  0  0  0  0  0  0  0  0
    1.7185    0.8638    0.1450 O   0  0  0  0  0  0  0  0  0  0  0  0
    2.2222   -1.4369   -0.0306 C   0  0  0  0  0  0  0  0  0  0  0  0
    0.7705   -1.6270   -0.3301 C   0  0  0  0  0  0  0  0  0  0  0  0
   -0.1732   -1.2610    0.7887 C   0  0  0  0  0  0  0  0  0  0  0  0
   -1.5331   -1.4836    0.4276 N   0  0  0  0  0  0  0  0  0  0  0  0
   -2.1165   -0.6774   -0.5480 C   0  0  0  0  0  0  0  0  0  0  0  0
   -2.3811    0.7555   -0.2209 C   0  0  1  0  0  0  0  0  0  0  0  0
   -2.9433    1.3191   -1.3835 O   0  0  0  0  0  0  0  0  0  0  0  0
   -3.4032    0.8592    0.9229 C   0  0  0  0  0  0  0  0  0  0  0  0
   -3.6920    2.1886    1.1163 O   0  0  0  0  0  0  0  0  0  0  0  0
    5.2200    1.8840    0.3692 H   0  0  0  0  0  0  0  0  0  0  0  0
    3.4911    2.3678    0.5376 H   0  0  0  0  0  0  0  0  0  0  0  0
    4.4513    1.8157    1.9777 H   0  0  0  0  0  0  0  0  0  0  0  0
    4.5934   -0.4719    0.7067 H   0  0  0  0  0  0  0  0  0  0  0  0
    2.7989   -1.8408   -0.8997 H   0  0  0  0  0  0  0  0  0  0  0  0
    2.4827   -2.0708    0.8437 H   0  0  0  0  0  0  0  0  0  0  0  0
    0.5639   -1.0079   -1.2469 H   0  0  0  0  0  0  0  0  0  0  0  0
    0.5604   -2.6866   -0.6683 H   0  0  0  0  0  0  0  0  0  0  0  0
    0.0537   -1.8393    1.7179 H   0  0  0  0  0  0  0  0  0  0  0  0
   -0.0702   -0.1805    0.9910 H   0  0  0  0  0  0  0  0  0  0  0  0
   -2.0252   -2.2613    0.8219 H   0  0  0  0  0  0  0  0  0  0  0  0
   -3.0965   -1.1292   -0.8489 H   0  0  0  0  0  0  0  0  0  0  0  0
   -1.4480   -0.6896   -1.4617 H   0  0  0  0  0  0  0  0  0  0  0  0
   -1.5266    1.3585    0.0611 H   0  0  0  0  0  0  0  0  0  0  0  0
   -3.2828    2.2460   -1.2059 H   0  0  0  0  0  0  0  0  0  0  0  0
   -4.3118    0.3000    0.5462 H   0  0  0  0  0  0  0  0  0  0  0  0
   -2.9905    0.3993    1.8411 H   0  0  0  0  0  0  0  0  0  0  0  0
   -4.6747    2.3671    0.9946 H   0  0  0  0  0  0  0  0  0  0  0  0
  1  2  1  0
  2  3  1  0
  3  4  2  0
  3  5  1  0
  5  6  1  0
  6  7  1  0
  7  8  1  0
  8  9  1  0
  9 10  1  0
 10 11  1  0
 10 12  1  0
 12 13  1  0
  1 14  1  0
  1 15  1  0
  1 16  1  0
  2 17  1  0
  5 18  1  0
  5 19  1  0
  6 20  1  0
  6 21  1  0
  7 22  1  0
  7 23  1  0
  8 24  1  0
  9 25  1  0
  9 26  1  0
 10 27  1  1
 11 28  1  0
 12 29  1  0
 12 30  1  0
 13 31  1  0
M  END
$$$$

     RDKit          3D

 31 30  0  0  0  0  0  0  0  0999 V2000
   -4.5524    1.1205   -1.2633 C   0  0  0  0  0  0  0  0  0  0  0  0
   -3.6209    0.0264   -1.3843 N   0  0  0  0  0  0  0  0  0  0  0  0
   -2.7038   -0.2955   -0.3416 C   0  0  0  0  0  0  0  0  0  0  0  0
   -2.7833    0.4566    0.6847 O   0  0  0  0  0  0  0  0  0  0  0  0
   -1.7494   -1.4172   -0.4698 C   0  0  0  0  0  0  0  0  0  0  0  0
   -0.8373   -1.5822    0.6993 C   0  0  0  0  0  0  0  0  0  0  0  0
    0.0308   -0.3363    0.9232 C   0  0  0  0  0  0  0  0  0  0  0  0
    0.8052   -0.1202   -0.2445 N   0  0  0  0  0  0  0  0  0  0  0  0
    1.6338    1.0254   -0.3019 C   0  0  0  0  0  0  0  0  0  0  0  0
    2.7815    0.9650    0.6413 C   0  0  1  0  0  0  0  0  0  0  0  0
    2.3831    0.8825    1.9565 O   0  0  0  0  0  0  0  0  0  0  0  0
    3.6586   -0.2685    0.3844 C   0  0  0  0  0  0  0  0  0  0  0  0
    4.7522   -0.2225    1.2581 O   0  0  0  0  0  0  0  0  0  0  0  0
   -5.5404    0.8172   -0.9236 H   0  0  0  0  0  0  0  0  0  0  0  0
   -4.5724    1.6580   -2.2313 H   0  0  0  0  0  0  0  0  0  0  0  0
   -4.1656    1.8551   -0.5142 H   0  0  0  0  0  0  0  0  0  0  0  0
   -3.5973   -0.5603   -2.2476 H   0  0  0  0  0  0  0  0  0  0  0  0
   -2.3537   -2.3263   -0.6545 H   0  0  0  0  0  0  0  0  0  0  0  0
   -1.1196   -1.2929   -1.3958 H   0  0  0  0  0  0  0  0  0  0  0  0
   -0.1876   -2.4593    0.5452 H   0  0  0  0  0  0  0  0  0  0  0  0
   -1.4245   -1.7603    1.6250 H   0  0  0  0  0  0  0  0  0  0  0  0
    0.7105   -0.5961    1.7697 H   0  0  0  0  0  0  0  0  0  0  0  0
   -0.5547    0.5339    1.2522 H   0  0  0  0  0  0  0  0  0  0  0  0
    1.1808   -0.9623   -0.6870 H   0  0  0  0  0  0  0  0  0  0  0  0
    1.0638    1.9743   -0.1477 H   0  0  0  0  0  0  0  0  0  0  0  0
    2.0512    1.1400   -1.3457 H   0  0  0  0  0  0  0  0  0  0  0  0
    3.4332    1.8864    0.5667 H   0  0  0  0  0  0  0  0  0  0  0  0
    3.0639    0.5321    2.5692 H   0  0  0  0  0  0  0  0  0  0  0  0
    4.0461   -0.2039   -0.6428 H   0  0  0  0  0  0  0  0  0  0  0  0
    3.0201   -1.1443    0.5476 H   0  0  0  0  0  0  0  0  0  0  0  0
    5.1481    0.6745    1.2047 H   0  0  0  0  0  0  0  0  0  0  0  0
  1  2  1  0
  2  3  1  0
  3  4  2  0
  3  5  1  0
  5  6  1  0
  6  7  1  0
  7  8  1  0
  8  9  1  0
  9 10  1  0
 10 11  1  0
 10 12  1  0
 12 13  1  0
  1 14  1  0
  1 15  1  0
  1 16  1  0
  2 17  1  0
  5 18  1  0
  5 19  1  0
  6 20  1  0
  6 21  1  0
  7 22  1  0
  7 23  1  0
  8 24  1  0
  9 25  1  0
  9 26  1  0
 10 27  1  1
 11 28  1  0
 12 29  1  0
 12 30  1  0
 13 31  1  0
M  END
$$$$

     RDKit          3D

 31 30  0  0  0  0  0  0  0  0999 V2000
    5.1146    1.0891   -0.6102 C   0  0  0  0  0  0  0  0  0  0  0  0
    3.6466    1.0189   -0.7203 N   0  0  0  0  0  0  0  0  0  0  0  0
    2.8994    0.0433   -0.0451 C   0  0  0  0  0  0  0  0  0  0  0  0
    3.5149   -0.8033    0.6850 O   0  0  0  0  0  0  0  0  0  0  0  0
    1.4371   -0.0536   -0.1386 C   0  0  0  0  0  0  0  0  0  0  0  0
    0.9605   -1.1888    0.7129 C   0  0  0  0  0  0  0  0  0  0  0  0
   -0.5065   -1.4379    0.7028 C   0  0  0  0  0  0  0  0  0  0  0  0
   -1.2164   -0.3100    1.1884 N   0  0  0  0  0  0  0  0  0  0  0  0
   -2.6343   -0.4213    1.1433 C   0  0  0  0  0  0  0  0  0  0  0  0
   -3.0662   -0.3734   -0.3141 C   0  0  1  0  0  0  0  0  0  0  0  0
   -4.4586   -0.5221   -0.3117 O   0  0  0  0  0  0  0  0  0  0  0  0
   -2.6916    1.0208   -0.7994 C   0  0  0  0  0  0  0  0  0  0  0  0
   -3.1731    1.2018   -2.0802 O   0  0  0  0  0  0  0  0  0  0  0  0
    5.5360    1.9158   -1.1751 H   0  0  0  0  0  0  0  0  0  0  0  0
    5.2852    1.2231    0.4990 H   0  0  0  0  0  0  0  0  0  0  0  0
    5.4804    0.0853   -0.8531 H   0  0  0  0  0  0  0  0  0  0  0  0
    3.1216    1.7160   -1.3169 H   0  0  0  0  0  0  0  0  0  0  0  0
    1.1021   -0.1959   -1.1927 H   0  0  0  0  0  0  0  0  0  0  0  0
    0.9407    0.8760    0.1986 H   0  0  0  0  0  0  0  0  0  0  0  0
    1.3362   -0.9738    1.7511 H   0  0  0  0  0  0  0  0  0  0  0  0
    1.5466   -2.0893    0.3991 H   0  0  0  0  0  0  0  0  0  0  0  0
   -0.6709   -2.2634    1.4770 H   0  0  0  0  0  0  0  0  0  0  0  0
   -0.8615   -1.8774   -0.2451 H   0  0  0  0  0  0  0  0  0  0  0  0
   -0.7964    0.6040    1.1448 H   0  0  0  0  0  0  0  0  0  0  0  0
   -3.0597    0.4500    1.7006 H   0  0  0  0  0  0  0  0  0  0  0  0
   -2.9359   -1.3699    1.6201 H   0  0  0  0  0  0  0  0  0  0  0  0
   -2.6064   -1.1473   -0.9352 H   0  0  0  0  0  0  0  0  0  0  0  0
   -4.7274   -1.1810   -1.0034 H   0  0  0  0  0  0  0  0  0  0  0  0
   -1.6121    1.1949   -0.7804 H   0  0  0  0  0  0  0  0  0  0  0  0
   -3.1577    1.7629   -0.1053 H   0  0  0  0  0  0  0  0  0  0  0  0
   -3.7468    2.0064   -2.1078 H   0  0  0  0  0  0  0  0  0  0  0  0
  1  2  1  0
  2  3  1  0
  3  4  2  0
  3  5  1  0
  5  6  1  0
  6  7  1  0
  7  8  1  0
  8  9  1  0
  9 10  1  0
 10 11  1  0
 10 12  1  0
 12 13  1  0
  1 14  1  0
  1 15  1  0
  1 16  1  0
  2 17  1  0
  5 18  1  0
  5 19  1  0
  6 20  1  0
  6 21  1  0
  7 22  1  0
  7 23  1  0
  8 24  1  0
  9 25  1  0
  9 26  1  0
 10 27  1  6
 11 28  1  0
 12 29  1  0
 12 30  1  0
 13 31  1  0
M  END
$$$$
