
     RDKit          3D

 26 26  0  0  0  0  0  0  0  0999 V2000
   -2.1788   -0.9553    0.7422 C   0  0  0  0  0  0  0  0  0  0  0  0
   -1.5343    0.1631   -0.0776 C   0  0  0  0  0  0  0  0  0  0  0  0
   -2.3210    0.2934   -1.3402 C   0  0  0  0  0  0  0  0  0  0  0  0
   -1.6240    1.3144    0.7010 O   0  0  0  0  0  0  0  0  0  0  0  0
   -0.1049   -0.2093   -0.2838 C   0  0  1  0  0  0  0  0  0  0  0  0
    0.6568    0.7485   -0.9192 O   0  0  0  0  0  0  0  0  0  0  0  0
    1.9424    0.2016   -0.8667 C   0  0  1  0  0  0  0  0  0  0  0  0
    2.9296    1.1766   -0.9607 O   0  0  0  0  0  0  0  0  0  0  0  0
    2.0579   -0.5391    0.4270 C   0  0  1  0  0  0  0  0  0  0  0  0
    3.0348   -0.0520    1.2648 O   0  0  0  0  0  0  0  0  0  0  0  0
    0.6615   -0.3648    1.0129 C   0  0  1  0  0  0  0  0  0  0  0  0
    0.6860    0.8214    1.7420 O   0  0  0  0  0  0  0  0  0  0  0  0
   -2.0831   -1.8839    0.1402 H   0  0  0  0  0  0  0  0  0  0  0  0
   -1.6873   -1.0986    1.7064 H   0  0  0  0  0  0  0  0  0  0  0  0
   -3.2693   -0.7520    0.8293 H   0  0  0  0  0  0  0  0  0  0  0  0
   -2.5043    1.3747   -1.5295 H   0  0  0  0  0  0  0  0  0  0  0  0
   -3.3302   -0.1702   -1.2621 H   0  0  0  0  0  0  0  0  0  0  0  0
   -1.7532   -0.1767   -2.1783 H   0  0  0  0  0  0  0  0  0  0  0  0
   -2.2419    1.2129    1.4688 H   0  0  0  0  0  0  0  0  0  0  0  0
    0.0044   -1.1620   -0.8314 H   0  0  0  0  0  0  0  0  0  0  0  0
    2.0369   -0.4835   -1.7288 H   0  0  0  0  0  0  0  0  0  0  0  0
    2.9874    1.5947   -1.8361 H   0  0  0  0  0  0  0  0  0  0  0  0
    2.1764   -1.6401    0.2216 H   0  0  0  0  0  0  0  0  0  0  0  0
    3.7624    0.3531    0.7672 H   0  0  0  0  0  0  0  0  0  0  0  0
    0.3455   -1.2290    1.6015 H   0  0  0  0  0  0  0  0  0  0  0  0
    1.3503    1.4621    1.3851 H   0  0  0  0  0  0  0  0  0  0  0  0
  1  2  1  0
  2  3  1  0
  2  4  1  0
  2  5  1  0
  5  6  1  0
  6  7  1  0
  7  8  1  0
  7  9  1  0
  9 10  1  0
  9 11  1  0
 11 12  1  0
 11  5  1  0
  1 13  1  0
  1 14  1  0
  1 15  1  0
  3 16  1  0
  3 17  1  0
  3 18  1  0
  4 19  1  0
  5 20  1  6
  7 21  1  6
  8 22  1  0
  9 23  1  6
 10 24  1  0
 11 25  1  1
 12 26  1  0
M  END
$$$$

     RDKit          3D

 26 26  0  0  0  0  0  0  0  0999 V2000
    2.3597   -1.0802    0.2399 C   0  0  0  0  0  0  0  0  0  0  0  0
    1.5501    0.1865    0.0605 C   0  0  0  0  0  0  0  0  0  0  0  0
    1.5209    0.6689   -1.3569 C   0  0  0  0  0  0  0  0  0  0  0  0
    2.2119    1.1798    0.8164 O   0  0  0  0  0  0  0  0  0  0  0  0
    0.1761    0.0412    0.6604 C   0  0  1  0  0  0  0  0  0  0  0  0
   -0.4571    1.2661    0.5637 O   0  0  0  0  0  0  0  0  0  0  0  0
   -1.8169    1.0421    0.5631 C   0  0  1  0  0  0  0  0  0  0  0  0
   -2.3851    2.0301   -0.2740 O   0  0  0  0  0  0  0  0  0  0  0  0
   -2.0453   -0.3289   -0.0216 C   0  0  1  0  0  0  0  0  0  0  0  0
   -2.5452   -0.1933   -1.3021 O   0  0  0  0  0  0  0  0  0  0  0  0
   -0.6745   -0.9812   -0.0122 C   0  0  1  0  0  0  0  0  0  0  0  0
   -0.2810   -1.3005   -1.2921 O   0  0  0  0  0  0  0  0  0  0  0  0
    2.6754   -1.1084    1.3176 H   0  0  0  0  0  0  0  0  0  0  0  0
    3.2909   -1.0045   -0.3438 H   0  0  0  0  0  0  0  0  0  0  0  0
    1.7958   -1.9940    0.0580 H   0  0  0  0  0  0  0  0  0  0  0  0
    0.4991    0.9422   -1.7028 H   0  0  0  0  0  0  0  0  0  0  0  0
    2.1652    1.5530   -1.5410 H   0  0  0  0  0  0  0  0  0  0  0  0
    1.9396   -0.1577   -1.9930 H   0  0  0  0  0  0  0  0  0  0  0  0
    1.6116    1.6627    1.4090 H   0  0  0  0  0  0  0  0  0  0  0  0
    0.3031   -0.2173    1.7281 H   0  0  0  0  0  0  0  0  0  0  0  0
   -2.2649    1.1709    1.5606 H   0  0  0  0  0  0  0  0  0  0  0  0
   -2.9837    2.6276    0.2106 H   0  0  0  0  0  0  0  0  0  0  0  0
   -2.7792   -0.8599    0.5989 H   0  0  0  0  0  0  0  0  0  0  0  0
   -3.0413   -0.9899   -1.6045 H   0  0  0  0  0  0  0  0  0  0  0  0
   -0.7665   -1.9230    0.5670 H   0  0  0  0  0  0  0  0  0  0  0  0
   -0.0588   -2.2322   -1.4466 H   0  0  0  0  0  0  0  0  0  0  0  0
  1  2  1  0
  2  3  1  0
  2  4  1  0
  2  5  1  0
  5  6  1  0
  6  7  1  0
  7  8  1  0
  7  9  1  0
  9 10  1  0
  9 11  1  0
 11 12  1  0
 11  5  1  0
  1 13  1  0
  1 14  1  0
  1 15  1  0
  3 16  1  0
  3 17  1  0
  3 18  1  0
  4 19  1  0
  5 20  1  1
  7 21  1  1
  8 22  1  0
  9 23  1  1
 10 24  1  0
 11 25  1  1
 12 26  1  0
M  END
$$$$

     RDKit          3D

 26 26  0  0  0  0  0  0  0  0999 V2000
   -2.1075    1.1600    0.3040 C   0  0  0  0  0  0  0  0  0  0  0  0
   -1.3788   -0.0697   -0.1647 C   0  0  0  0  0  0  0  0  0  0  0  0
   -2.1780   -1.2790    0.2722 C   0  0  0  0  0  0  0  0  0  0  0  0
   -1.3344   -0.0676   -1.5441 O   0  0  0  0  0  0  0  0  0  0  0  0
   -0.0069   -0.1027    0.4664 C   0  0  1  0  0  0  0  0  0  0  0  0
    0.7109   -1.2290    0.1001 O   0  0  0  0  0  0  0  0  0  0  0  0
    2.0470   -0.8695    0.3848 C   0  0  1  0  0  0  0  0  0  0  0  0
    2.9324   -1.7951   -0.1282 O   0  0  0  0  0  0  0  0  0  0  0  0
    2.1281    0.4668   -0.3251 C   0  0  1  0  0  0  0  0  0  0  0  0
    2.1093    0.2465   -1.6972 O   0  0  0  0  0  0  0  0  0  0  0  0
    0.8159    1.0946    0.1486 C   0  0  1  0  0  0  0  0  0  0  0  0
    0.2737    1.9256   -0.8049 O   0  0  0  0  0  0  0  0  0  0  0  0
   -1.5477    1.6646    1.1166 H   0  0  0  0  0  0  0  0  0  0  0  0
   -2.2877    1.8907   -0.5168 H   0  0  0  0  0  0  0  0  0  0  0  0
   -3.1185    0.9246    0.7288 H   0  0  0  0  0  0  0  0  0  0  0  0
   -2.5314   -1.1171    1.3249 H   0  0  0  0  0  0  0  0  0  0  0  0
   -3.0481   -1.4190   -0.3808 H   0  0  0  0  0  0  0  0  0  0  0  0
   -1.5750   -2.2105    0.2672 H   0  0  0  0  0  0  0  0  0  0  0  0
   -1.1730   -0.9697   -1.9342 H   0  0  0  0  0  0  0  0  0  0  0  0
   -0.1626   -0.1721    1.5710 H   0  0  0  0  0  0  0  0  0  0  0  0
    2.1801   -0.6719    1.4627 H   0  0  0  0  0  0  0  0  0  0  0  0
    3.2425   -2.4076    0.5815 H   0  0  0  0  0  0  0  0  0  0  0  0
    2.9982    1.0599   -0.0025 H   0  0  0  0  0  0  0  0  0  0  0  0
    1.5666   -0.5706   -1.8408 H   0  0  0  0  0  0  0  0  0  0  0  0
    1.0856    1.6606    1.0865 H   0  0  0  0  0  0  0  0  0  0  0  0
    0.3596    2.8569   -0.4760 H   0  0  0  0  0  0  0  0  0  0  0  0
  1  2  1  0
  2  3  1  0
  2  4  1  0
  2  5  1  0
  5  6  1  0
  6  7  1  0
  7  8  1  0
  7  9  1  0
  9 10  1  0
  9 11  1  0
 11 12  1  0
 11  5  1  0
  1 13  1  0
  1 14  1  0
  1 15  1  0
  3 16  1  0
  3 17  1  0
  3 18  1  0
  4 19  1  0
  5 20  1  1
  7 21  1  1
  8 22  1  0
  9 23  1  6
 10 24  1  0
 11 25  1  1
 12 26  1  0
M  END
$$$$

     RDKit          3D

 26 26  0  0  0  0  0  0  0  0999 V2000
   -1.9246   -1.2329    0.8343 C   0  0  0  0  0  0  0  0  0  0  0  0
   -1.5256   -0.2916   -0.2354 C   0  0  0  0  0  0  0  0  0  0  0  0
   -2.4565    0.9130   -0.1789 C   0  0  0  0  0  0  0  0  0  0  0  0
   -1.7542   -0.8997   -1.4710 O   0  0  0  0  0  0  0  0  0  0  0  0
   -0.1359    0.2009   -0.2039 C   0  0  1  0  0  0  0  0  0  0  0  0
    0.2528    0.8314    0.9562 O   0  0  0  0  0  0  0  0  0  0  0  0
    1.5536    1.2431    0.6006 C   0  0  1  0  0  0  0  0  0  0  0  0
    2.3001    1.6168    1.6969 O   0  0  0  0  0  0  0  0  0  0  0  0
    2.1641    0.0820   -0.1543 C   0  0  1  0  0  0  0  0  0  0  0  0
    3.1299   -0.5513    0.5986 O   0  0  0  0  0  0  0  0  0  0  0  0
    0.9368   -0.8231   -0.3779 C   0  0  1  0  0  0  0  0  0  0  0  0
    0.9922   -1.7415    0.6692 O   0  0  0  0  0  0  0  0  0  0  0  0
   -2.9548   -1.6086    0.5909 H   0  0  0  0  0  0  0  0  0  0  0  0
   -1.2971   -2.1247    0.9414 H   0  0  0  0  0  0  0  0  0  0  0  0
   -2.0472   -0.6948    1.8138 H   0  0  0  0  0  0  0  0  0  0  0  0
   -3.3672    0.7144    0.4020 H   0  0  0  0  0  0  0  0  0  0  0  0
   -2.6858    1.2854   -1.2094 H   0  0  0  0  0  0  0  0  0  0  0  0
   -1.9457    1.7778    0.3276 H   0  0  0  0  0  0  0  0  0  0  0  0
   -1.7889   -0.2402   -2.2084 H   0  0  0  0  0  0  0  0  0  0  0  0
   -0.0141    0.9439   -1.0322 H   0  0  0  0  0  0  0  0  0  0  0  0
    1.4047    2.1081   -0.0970 H   0  0  0  0  0  0  0  0  0  0  0  0
    2.0983    2.5914    1.8541 H   0  0  0  0  0  0  0  0  0  0  0  0
    2.5178    0.4127   -1.1418 H   0  0  0  0  0  0  0  0  0  0  0  0
    3.6571   -1.1642    0.0340 H   0  0  0  0  0  0  0  0  0  0  0  0
    0.9651   -1.2891   -1.3691 H   0  0  0  0  0  0  0  0  0  0  0  0
    1.9248   -2.0591    0.7569 H   0  0  0  0  0  0  0  0  0  0  0  0
  1  2  1  0
  2  3  1  0
  2  4  1  0
  2  5  1  0
  5  6  1  0
  6  7  1  0
  7  8  1  0
  7  9  1  0
  9 10  1  0
  9 11  1  0
 11 12  1  0
 11  5  1  0
  1 13  1  0
  1 14  1  0
  1 15  1  0
  3 16  1  0
  3 17  1  0
  3 18  1  0
  4 19  1  0
  5 20  1  6
  7 21  1  6
  8 22  1  0
  9 23  1  6
 10 24  1  0
 11 25  1  6
 12 26  1  0
M  END
$$$$

     RDKit          3D

 26 26  0  0  0  0  0  0  0  0999 V2000
   -1.6909    0.9460    0.2798 C   0  0  0  0  0  0  0  0  0  0  0  0
   -1.3306   -0.4963    0.2016 C   0  0  0  0  0  0  0  0  0  0  0  0
   -2.1449   -1.1117   -0.9380 C   0  0  0  0  0  0  0  0  0  0  0  0
   -1.6563   -1.1154    1.3854 O   0  0  0  0  0  0  0  0  0  0  0  0
    0.1148   -0.7541   -0.0977 C   0  0  1  0  0  0  0  0  0  0  0  0
    0.5552   -0.1747   -1.2735 O   0  0  0  0  0  0  0  0  0  0  0  0
    1.9403   -0.0497   -1.1036 C   0  0  1  0  0  0  0  0  0  0  0  0
    2.5570    0.6713   -2.0757 O   0  0  0  0  0  0  0  0  0  0  0  0
    1.9552    0.6490    0.2639 C   0  0  1  0  0  0  0  0  0  0  0  0
    1.2654    1.8443    0.2312 O   0  0  0  0  0  0  0  0  0  0  0  0
    1.0427   -0.3453    1.0012 C   0  0  1  0  0  0  0  0  0  0  0  0
    0.4357    0.2167    2.0910 O   0  0  0  0  0  0  0  0  0  0  0  0
   -1.3734    1.5431   -0.5995 H   0  0  0  0  0  0  0  0  0  0  0  0
   -2.8188    1.0039    0.2722 H   0  0  0  0  0  0  0  0  0  0  0  0
   -1.3571    1.4383    1.2205 H   0  0  0  0  0  0  0  0  0  0  0  0
   -3.0262   -0.4697   -1.1735 H   0  0  0  0  0  0  0  0  0  0  0  0
   -2.5145   -2.1161   -0.6628 H   0  0  0  0  0  0  0  0  0  0  0  0
   -1.5533   -1.1948   -1.8588 H   0  0  0  0  0  0  0  0  0  0  0  0
   -1.7988   -0.4735    2.1374 H   0  0  0  0  0  0  0  0  0  0  0  0
    0.2131   -1.8697   -0.2473 H   0  0  0  0  0  0  0  0  0  0  0  0
    2.3474   -1.0483   -0.9446 H   0  0  0  0  0  0  0  0  0  0  0  0
    2.0202    1.3222   -2.5503 H   0  0  0  0  0  0  0  0  0  0  0  0
    2.9492    0.6966    0.6974 H   0  0  0  0  0  0  0  0  0  0  0  0
    1.6107    2.5097   -0.3832 H   0  0  0  0  0  0  0  0  0  0  0  0
    1.7321   -1.1951    1.2762 H   0  0  0  0  0  0  0  0  0  0  0  0
    0.5259   -0.4267    2.8509 H   0  0  0  0  0  0  0  0  0  0  0  0
  1  2  1  0
  2  3  1  0
  2  4  1  0
  2  5  1  0
  5  6  1  0
  6  7  1  0
  7  8  1  0
  7  9  1  0
  9 10  1  0
  9 11  1  0
 11 12  1  0
 11  5  1  0
  1 13  1  0
  1 14  1  0
  1 15  1  0
  3 16  1  0
  3 17  1  0
  3 18  1  0
  4 19  1  0
  5 20  1  6
  7 21  1  1
  8 22  1  0
  9 23  1  1
 10 24  1  0
 11 25  1  1
 12 26  1  0
M  END
$$$$

     RDKit          3D

 26 26  0  0  0  0  0  0  0  0999 V2000
   -2.3353    1.0422    0.1362 C   0  0  0  0  0  0  0  0  0  0  0  0
   -1.4701   -0.0955   -0.3844 C   0  0  0  0  0  0  0  0  0  0  0  0
   -1.6782   -1.3000    0.4887 C   0  0  0  0  0  0  0  0  0  0  0  0
   -1.8823   -0.3941   -1.6570 O   0  0  0  0  0  0  0  0  0  0  0  0
   -0.0591    0.4112   -0.3858 C   0  0  1  0  0  0  0  0  0  0  0  0
    0.4112    0.7283    0.8679 O   0  0  0  0  0  0  0  0  0  0  0  0
    1.7314    1.1402    0.5709 C   0  0  1  0  0  0  0  0  0  0  0  0
    2.4488    1.3476    1.7246 O   0  0  0  0  0  0  0  0  0  0  0  0
    2.2298   -0.0613   -0.2241 C   0  0  1  0  0  0  0  0  0  0  0  0
    2.7265   -0.9765    0.6823 O   0  0  0  0  0  0  0  0  0  0  0  0
    0.9453   -0.5686   -0.8947 C   0  0  1  0  0  0  0  0  0  0  0  0
    0.7462   -1.8655   -0.4451 O   0  0  0  0  0  0  0  0  0  0  0  0
   -1.8567    2.0108   -0.1284 H   0  0  0  0  0  0  0  0  0  0  0  0
   -3.3691    0.9878   -0.2523 H   0  0  0  0  0  0  0  0  0  0  0  0
   -2.2920    0.9795    1.2483 H   0  0  0  0  0  0  0  0  0  0  0  0
   -2.7496   -1.2774    0.8154 H   0  0  0  0  0  0  0  0  0  0  0  0
   -1.0553   -1.2612    1.3816 H   0  0  0  0  0  0  0  0  0  0  0  0
   -1.5830   -2.2632   -0.0838 H   0  0  0  0  0  0  0  0  0  0  0  0
   -2.8684   -0.5617   -1.6648 H   0  0  0  0  0  0  0  0  0  0  0  0
   -0.0250    1.3195   -1.0047 H   0  0  0  0  0  0  0  0  0  0  0  0
    1.6670    2.0459   -0.0832 H   0  0  0  0  0  0  0  0  0  0  0  0
    2.8419    2.2543    1.7898 H   0  0  0  0  0  0  0  0  0  0  0  0
    2.9715    0.2538   -0.9796 H   0  0  0  0  0  0  0  0  0  0  0  0
    2.1471   -0.9512    1.4880 H   0  0  0  0  0  0  0  0  0  0  0  0
    1.0344   -0.4933   -1.9855 H   0  0  0  0  0  0  0  0  0  0  0  0
    1.3230   -2.4512   -1.0201 H   0  0  0  0  0  0  0  0  0  0  0  0
  1  2  1  0
  2  3  1  0
  2  4  1  0
  2  5  1  0
  5  6  1  0
  6  7  1  0
  7  8  1  0
  7  9  1  0
  9 10  1  0
  9 11  1  0
 11 12  1  0
 11  5  1  0
  1 13  1  0
  1 14  1  0
  1 15  1  0
  3 16  1  0
  3 17  1  0
  3 18  1  0
  4 19  1  0
  5 20  1  6
  7 21  1  6
  8 22  1  0
  9 23  1  6
 10 24  1  0
 11 25  1  6
 12 26  1  0
M  END
$$$$

     RDKit          3D

 26 26  0  0  0  0  0  0  0  0999 V2000
   -1.9206    1.1853    0.7617 C   0  0  0  0  0  0  0  0  0  0  0  0
   -1.5890    0.3220   -0.4056 C   0  0  0  0  0  0  0  0  0  0  0  0
   -2.3773   -0.9770   -0.2546 C   0  0  0  0  0  0  0  0  0  0  0  0
   -1.9986    0.9613   -1.5651 O   0  0  0  0  0  0  0  0  0  0  0  0
   -0.1548   -0.0325   -0.5384 C   0  0  1  0  0  0  0  0  0  0  0  0
    0.7013    1.0211   -0.7320 O   0  0  0  0  0  0  0  0  0  0  0  0
    1.9625    0.4294   -0.7156 C   0  0  1  0  0  0  0  0  0  0  0  0
    2.9638    1.3132   -0.3299 O   0  0  0  0  0  0  0  0  0  0  0  0
    1.8980   -0.7533    0.1962 C   0  0  1  0  0  0  0  0  0  0  0  0
    2.7879   -0.7298    1.2352 O   0  0  0  0  0  0  0  0  0  0  0  0
    0.4386   -0.6976    0.6733 C   0  0  1  0  0  0  0  0  0  0  0  0
    0.4233    0.1510    1.7810 O   0  0  0  0  0  0  0  0  0  0  0  0
   -3.0054    1.4694    0.6658 H   0  0  0  0  0  0  0  0  0  0  0  0
   -1.8605    0.6477    1.7411 H   0  0  0  0  0  0  0  0  0  0  0  0
   -1.3704    2.1454    0.7756 H   0  0  0  0  0  0  0  0  0  0  0  0
   -1.7196   -1.8678   -0.3343 H   0  0  0  0  0  0  0  0  0  0  0  0
   -3.1220   -1.0772   -1.0795 H   0  0  0  0  0  0  0  0  0  0  0  0
   -2.9329   -1.0119    0.6914 H   0  0  0  0  0  0  0  0  0  0  0  0
   -1.2445    1.2674   -2.1045 H   0  0  0  0  0  0  0  0  0  0  0  0
   -0.0516   -0.7485   -1.3834 H   0  0  0  0  0  0  0  0  0  0  0  0
    2.1354    0.0633   -1.7693 H   0  0  0  0  0  0  0  0  0  0  0  0
    3.6214    1.3750   -1.0770 H   0  0  0  0  0  0  0  0  0  0  0  0
    1.9619   -1.7136   -0.3918 H   0  0  0  0  0  0  0  0  0  0  0  0
    3.1447   -1.6674    1.3415 H   0  0  0  0  0  0  0  0  0  0  0  0
    0.0331   -1.6847    0.8820 H   0  0  0  0  0  0  0  0  0  0  0  0
    1.2751    0.6097    1.9363 H   0  0  0  0  0  0  0  0  0  0  0  0
  1  2  1  0
  2  3  1  0
  2  4  1  0
  2  5  1  0
  5  6  1  0
  6  7  1  0
  7  8  1  0
  7  9  1  0
  9 10  1  0
  9 11  1  0
 11 12  1  0
 11  5  1  0
  1 13  1  0
  1 14  1  0
  1 15  1  0
  3 16  1  0
  3 17  1  0
  3 18  1  0
  4 19  1  0
  5 20  1  6
  7 21  1  6
  8 22  1  0
  9 23  1  6
 10 24  1  0
 11 25  1  1
 12 26  1  0
M  END
$$$$

     RDKit          3D

 26 26  0  0  0  0  0  0  0  0999 V2000
   -2.4546    0.9778   -0.5027 C   0  0  0  0  0  0  0  0  0  0  0  0
   -1.5350   -0.0211    0.1570 C   0  0  0  0  0  0  0  0  0  0  0  0
   -1.4163    0.2714    1.6110 C   0  0  0  0  0  0  0  0  0  0  0  0
   -2.1416   -1.2840   -0.0103 O   0  0  0  0  0  0  0  0  0  0  0  0
   -0.2484   -0.0435   -0.5865 C   0  0  1  0  0  0  0  0  0  0  0  0
    0.4722    1.1201   -0.5246 O   0  0  0  0  0  0  0  0  0  0  0  0
    1.7867    0.8605   -0.8079 C   0  0  1  0  0  0  0  0  0  0  0  0
    2.5472    1.2632    0.3143 O   0  0  0  0  0  0  0  0  0  0  0  0
    1.9496   -0.6503   -0.8787 C   0  0  1  0  0  0  0  0  0  0  0  0
    3.1297   -1.0912   -0.3353 O   0  0  0  0  0  0  0  0  0  0  0  0
    0.7334   -1.0562   -0.0314 C   0  0  1  0  0  0  0  0  0  0  0  0
    1.0649   -0.7446    1.2810 O   0  0  0  0  0  0  0  0  0  0  0  0
   -2.2803    2.0034   -0.1351 H   0  0  0  0  0  0  0  0  0  0  0  0
   -3.4977    0.6936   -0.2115 H   0  0  0  0  0  0  0  0  0  0  0  0
   -2.4106    0.8933   -1.6008 H   0  0  0  0  0  0  0  0  0  0  0  0
   -0.5179    0.8650    1.8888 H   0  0  0  0  0  0  0  0  0  0  0  0
   -2.2956    0.9013    1.9125 H   0  0  0  0  0  0  0  0  0  0  0  0
   -1.4886   -0.6386    2.2585 H   0  0  0  0  0  0  0  0  0  0  0  0
   -2.0490   -1.4736   -0.9900 H   0  0  0  0  0  0  0  0  0  0  0  0
   -0.4581   -0.2900   -1.6432 H   0  0  0  0  0  0  0  0  0  0  0  0
    2.1720    1.3752   -1.6947 H   0  0  0  0  0  0  0  0  0  0  0  0
    2.8289    2.1850    0.2148 H   0  0  0  0  0  0  0  0  0  0  0  0
    1.7581   -1.0117   -1.9110 H   0  0  0  0  0  0  0  0  0  0  0  0
    2.9492   -1.5430    0.5107 H   0  0  0  0  0  0  0  0  0  0  0  0
    0.4396   -2.0858   -0.1961 H   0  0  0  0  0  0  0  0  0  0  0  0
    0.9620   -1.4764    1.9113 H   0  0  0  0  0  0  0  0  0  0  0  0
  1  2  1  0
  2  3  1  0
  2  4  1  0
  2  5  1  0
  5  6  1  0
  6  7  1  0
  7  8  1  0
  7  9  1  0
  9 10  1  0
  9 11  1  0
 11 12  1  0
 11  5  1  0
  1 13  1  0
  1 14  1  0
  1 15  1  0
  3 16  1  0
  3 17  1  0
  3 18  1  0
  4 19  1  0
  5 20  1  6
  7 21  1  6
  8 22  1  0
  9 23  1  6
 10 24  1  0
 11 25  1  1
 12 26  1  0
M  END
$$$$
