
     RDKit          3D

 30 29  0  0  0  0  0  0  0  0999 V2000
   -4.1388   -0.3610    0.8365 C   0  0  0  0  0  0  0  0  0  0  0  0
   -2.7715    0.2575    0.5898 C   0  0  2  0  0  0  0  0  0  0  0  0
   -2.8204    1.6170    0.9448 O   0  0  0  0  0  0  0  0  0  0  0  0
   -2.4746    0.1229   -0.8777 C   0  0  0  0  0  0  0  0  0  0  0  0
   -1.1620    0.6898   -1.2631 C   0  0  0  0  0  0  0  0  0  0  0  0
   -0.0595   -0.0233   -0.5873 C   0  0  0  0  0  0  0  0  0  0  0  0
   -0.2543   -1.0317    0.1238 O   0  0  0  0  0  0  0  0  0  0  0  0
    1.3014    0.3985   -0.7061 N   0  0  0  0  0  0  0  0  0  0  0  0
    2.3402   -0.3272   -0.0299 C   0  0  0  0  0  0  0  0  0  0  0  0
    3.3349   -0.9310   -1.0011 C   0  0  0  0  0  0  0  0  0  0  0  0
    2.6193   -1.8004   -1.8279 O   0  0  0  0  0  0  0  0  0  0  0  0
    3.0259    0.6544    0.9091 C   0  0  0  0  0  0  0  0  0  0  0  0
    4.0581    0.0347    1.6151 O   0  0  0  0  0  0  0  0  0  0  0  0
   -4.4402   -0.9961   -0.0151 H   0  0  0  0  0  0  0  0  0  0  0  0
   -4.9178    0.3982    1.0261 H   0  0  0  0  0  0  0  0  0  0  0  0
   -4.0865   -1.0433    1.7326 H   0  0  0  0  0  0  0  0  0  0  0  0
   -2.0156   -0.1927    1.2276 H   0  0  0  0  0  0  0  0  0  0  0  0
   -3.7667    1.8795    1.0974 H   0  0  0  0  0  0  0  0  0  0  0  0
   -3.2890    0.6170   -1.4825 H   0  0  0  0  0  0  0  0  0  0  0  0
   -2.5060   -0.9793   -1.1200 H   0  0  0  0  0  0  0  0  0  0  0  0
   -1.0069    0.7483   -2.3633 H   0  0  0  0  0  0  0  0  0  0  0  0
   -1.0742    1.7625   -0.9159 H   0  0  0  0  0  0  0  0  0  0  0  0
    1.5071    1.2312   -1.2870 H   0  0  0  0  0  0  0  0  0  0  0  0
    1.9015   -1.1745    0.5291 H   0  0  0  0  0  0  0  0  0  0  0  0
    4.0275   -1.5582   -0.4013 H   0  0  0  0  0  0  0  0  0  0  0  0
    3.8742   -0.1778   -1.5928 H   0  0  0  0  0  0  0  0  0  0  0  0
    2.2338   -2.4857   -1.2480 H   0  0  0  0  0  0  0  0  0  0  0  0
    3.4338    1.5135    0.3390 H   0  0  0  0  0  0  0  0  0  0  0  0
    2.2665    1.0656    1.6049 H   0  0  0  0  0  0  0  0  0  0  0  0
    4.8598    0.0916    1.0371 H   0  0  0  0  0  0  0  0  0  0  0  0
  1  2  1  0
  2  3  1  0
  2  4  1  0
  4  5  1  0
  5  6  1  0
  6  7  2  0
  6  8  1  0
  8  9  1  0
  9 10  1  0
 10 11  1  0
  9 12  1  0
 12 13  1  0
  1 14  1  0
  1 15  1  0
  1 16  1  0
  2 17  1  1
  3 18  1  0
  4 19  1  0
  4 20  1  0
  5 21  1  0
  5 22  1  0
  8 23  1  0
  9 24  1  0
 10 25  1  0
 10 26  1  0
 11 27  1  0
 12 28  1  0
 12 29  1  0
 13 30  1  0
M  END
$$$$

     RDKit          3D

 30 29  0  0  0  0  0  0  0  0999 V2000
    3.8455   -1.1628    0.3629 C   0  0  0  0  0  0  0  0  0  0  0  0
    3.5289    0.2628    0.6750 C   0  0  2  0  0  0  0  0  0  0  0  0
    4.3048    0.6902    1.7755 O   0  0  0  0  0  0  0  0  0  0  0  0
    2.0859    0.4820    1.0798 C   0  0  0  0  0  0  0  0  0  0  0  0
    1.1653    0.0618   -0.0192 C   0  0  0  0  0  0  0  0  0  0  0  0
   -0.2627    0.2528    0.3184 C   0  0  0  0  0  0  0  0  0  0  0  0
   -0.5371    0.7283    1.4481 O   0  0  0  0  0  0  0  0  0  0  0  0
   -1.3152   -0.0746   -0.5685 N   0  0  0  0  0  0  0  0  0  0  0  0
   -2.7088    0.1468   -0.1539 C   0  0  0  0  0  0  0  0  0  0  0  0
   -3.3681    1.1020   -1.0900 C   0  0  0  0  0  0  0  0  0  0  0  0
   -2.7459    2.3334   -1.1300 O   0  0  0  0  0  0  0  0  0  0  0  0
   -3.4569   -1.1750   -0.1885 C   0  0  0  0  0  0  0  0  0  0  0  0
   -3.4566   -1.7244   -1.4588 O   0  0  0  0  0  0  0  0  0  0  0  0
    4.9309   -1.3333    0.5813 H   0  0  0  0  0  0  0  0  0  0  0  0
    3.2682   -1.8862    0.9401 H   0  0  0  0  0  0  0  0  0  0  0  0
    3.6895   -1.3139   -0.7359 H   0  0  0  0  0  0  0  0  0  0  0  0
    3.8113    0.9354   -0.1580 H   0  0  0  0  0  0  0  0  0  0  0  0
    5.2734    0.5117    1.5884 H   0  0  0  0  0  0  0  0  0  0  0  0
    1.8363   -0.0624    2.0067 H   0  0  0  0  0  0  0  0  0  0  0  0
    1.9775    1.5638    1.2841 H   0  0  0  0  0  0  0  0  0  0  0  0
    1.3784    0.7278   -0.8988 H   0  0  0  0  0  0  0  0  0  0  0  0
    1.3030   -0.9895   -0.2932 H   0  0  0  0  0  0  0  0  0  0  0  0
   -1.0677   -0.4612   -1.4849 H   0  0  0  0  0  0  0  0  0  0  0  0
   -2.7359    0.5690    0.8691 H   0  0  0  0  0  0  0  0  0  0  0  0
   -4.4171    1.2598   -0.8129 H   0  0  0  0  0  0  0  0  0  0  0  0
   -3.3857    0.6365   -2.1132 H   0  0  0  0  0  0  0  0  0  0  0  0
   -3.0195    2.7926   -1.9663 H   0  0  0  0  0  0  0  0  0  0  0  0
   -4.4867   -1.0137    0.1646 H   0  0  0  0  0  0  0  0  0  0  0  0
   -2.9267   -1.8670    0.5112 H   0  0  0  0  0  0  0  0  0  0  0  0
   -2.5085   -1.9928   -1.6763 H   0  0  0  0  0  0  0  0  0  0  0  0
  1  2  1  0
  2  3  1  0
  2  4  1  0
  4  5  1  0
  5  6  1  0
  6  7  2  0
  6  8  1  0
  8  9  1  0
  9 10  1  0
 10 11  1  0
  9 12  1  0
 12 13  1  0
  1 14  1  0
  1 15  1  0
  1 16  1  0
  2 17  1  6
  3 18  1  0
  4 19  1  0
  4 20  1  0
  5 21  1  0
  5 22  1  0
  8 23  1  0
  9 24  1  0
 10 25  1  0
 10 26  1  0
 11 27  1  0
 12 28  1  0
 12 29  1  0
 13 30  1  0
M  END
$$$$

     RDKit          3D

 30 29  0  0  0  0  0  0  0  0999 V2000
    4.8212    0.0134    0.0359 C   0  0  0  0  0  0  0  0  0  0  0  0
    3.6116   -0.0848   -0.8741 C   0  0  2  0  0  0  0  0  0  0  0  0
    3.6125    0.9111   -1.8200 O   0  0  0  0  0  0  0  0  0  0  0  0
    2.3623   -0.0177   -0.0358 C   0  0  0  0  0  0  0  0  0  0  0  0
    1.1340   -0.1100   -0.8812 C   0  0  0  0  0  0  0  0  0  0  0  0
   -0.0874   -0.0455   -0.0729 C   0  0  0  0  0  0  0  0  0  0  0  0
    0.0355    0.0751    1.1878 O   0  0  0  0  0  0  0  0  0  0  0  0
   -1.3972   -0.1107   -0.6259 N   0  0  0  0  0  0  0  0  0  0  0  0
   -2.5714   -0.0430    0.2109 C   0  0  0  0  0  0  0  0  0  0  0  0
   -3.3880    1.1766   -0.1417 C   0  0  0  0  0  0  0  0  0  0  0  0
   -3.8129    1.1635   -1.4685 O   0  0  0  0  0  0  0  0  0  0  0  0
   -3.3907   -1.3060    0.0920 C   0  0  0  0  0  0  0  0  0  0  0  0
   -4.5029   -1.2082    0.9025 O   0  0  0  0  0  0  0  0  0  0  0  0
    4.5387   -0.4822    0.9964 H   0  0  0  0  0  0  0  0  0  0  0  0
    5.7167   -0.4313   -0.4111 H   0  0  0  0  0  0  0  0  0  0  0  0
    4.9784    1.0837    0.2590 H   0  0  0  0  0  0  0  0  0  0  0  0
    3.6651   -1.0576   -1.3773 H   0  0  0  0  0  0  0  0  0  0  0  0
    2.9657    1.6159   -1.5949 H   0  0  0  0  0  0  0  0  0  0  0  0
    2.3314    0.9355    0.5389 H   0  0  0  0  0  0  0  0  0  0  0  0
    2.3404   -0.8476    0.6986 H   0  0  0  0  0  0  0  0  0  0  0  0
    1.1316    0.7228   -1.6068 H   0  0  0  0  0  0  0  0  0  0  0  0
    1.1760   -1.0825   -1.4415 H   0  0  0  0  0  0  0  0  0  0  0  0
   -1.5303   -0.2095   -1.6551 H   0  0  0  0  0  0  0  0  0  0  0  0
   -2.2631    0.0600    1.2645 H   0  0  0  0  0  0  0  0  0  0  0  0
   -4.2512    1.2000    0.5635 H   0  0  0  0  0  0  0  0  0  0  0  0
   -2.7758    2.0750    0.0758 H   0  0  0  0  0  0  0  0  0  0  0  0
   -3.6368    0.3113   -1.9285 H   0  0  0  0  0  0  0  0  0  0  0  0
   -2.7762   -2.1519    0.4488 H   0  0  0  0  0  0  0  0  0  0  0  0
   -3.7304   -1.4829   -0.9524 H   0  0  0  0  0  0  0  0  0  0  0  0
   -4.3071   -0.6723    1.7144 H   0  0  0  0  0  0  0  0  0  0  0  0
  1  2  1  0
  2  3  1  0
  2  4  1  0
  4  5  1  0
  5  6  1  0
  6  7  2  0
  6  8  1  0
  8  9  1  0
  9 10  1  0
 10 11  1  0
  9 12  1  0
 12 13  1  0
  1 14  1  0
  1 15  1  0
  1 16  1  0
  2 17  1  6
  3 18  1  0
  4 19  1  0
  4 20  1  0
  5 21  1  0
  5 22  1  0
  8 23  1  0
  9 24  1  0
 10 25  1  0
 10 26  1  0
 11 27  1  0
 12 28  1  0
 12 29  1  0
 13 30  1  0
M  END
$$$$

     RDKit          3D

 30 29  0  0  0  0  0  0  0  0999 V2000
    4.1679   -0.0024   -0.4754 C   0  0  0  0  0  0  0  0  0  0  0  0
    3.6817   -0.4125    0.8806 C   0  0  2  0  0  0  0  0  0  0  0  0
    4.4372   -1.4915    1.3681 O   0  0  0  0  0  0  0  0  0  0  0  0
    2.2298   -0.8648    0.8560 C   0  0  0  0  0  0  0  0  0  0  0  0
    1.3297    0.2492    0.3695 C   0  0  0  0  0  0  0  0  0  0  0  0
   -0.0636   -0.2399    0.3646 C   0  0  0  0  0  0  0  0  0  0  0  0
   -0.3501   -1.4212    0.7289 O   0  0  0  0  0  0  0  0  0  0  0  0
   -1.1638    0.5671   -0.0427 N   0  0  0  0  0  0  0  0  0  0  0  0
   -2.5119    0.0897   -0.0461 C   0  0  0  0  0  0  0  0  0  0  0  0
   -3.1160    0.0748   -1.4481 C   0  0  0  0  0  0  0  0  0  0  0  0
   -4.4233   -0.4102   -1.2969 O   0  0  0  0  0  0  0  0  0  0  0  0
   -3.4351    0.9071    0.8200 C   0  0  0  0  0  0  0  0  0  0  0  0
   -3.4363    2.2195    0.3427 O   0  0  0  0  0  0  0  0  0  0  0  0
    5.1193   -0.5275   -0.7694 H   0  0  0  0  0  0  0  0  0  0  0  0
    3.4124   -0.2096   -1.2607 H   0  0  0  0  0  0  0  0  0  0  0  0
    4.4022    1.0686   -0.4786 H   0  0  0  0  0  0  0  0  0  0  0  0
    3.7576    0.4053    1.6419 H   0  0  0  0  0  0  0  0  0  0  0  0
    4.4108   -2.2635    0.7756 H   0  0  0  0  0  0  0  0  0  0  0  0
    1.9241   -1.1597    1.8595 H   0  0  0  0  0  0  0  0  0  0  0  0
    2.1136   -1.7327    0.1642 H   0  0  0  0  0  0  0  0  0  0  0  0
    1.4389    1.1383    1.0168 H   0  0  0  0  0  0  0  0  0  0  0  0
    1.5710    0.5415   -0.6783 H   0  0  0  0  0  0  0  0  0  0  0  0
   -0.9897    1.5550   -0.3554 H   0  0  0  0  0  0  0  0  0  0  0  0
   -2.5155   -0.9619    0.3093 H   0  0  0  0  0  0  0  0  0  0  0  0
   -3.1439    1.0694   -1.9038 H   0  0  0  0  0  0  0  0  0  0  0  0
   -2.5813   -0.6808   -2.0839 H   0  0  0  0  0  0  0  0  0  0  0  0
   -4.4092   -1.2493   -0.7617 H   0  0  0  0  0  0  0  0  0  0  0  0
   -3.1803    0.8350    1.8885 H   0  0  0  0  0  0  0  0  0  0  0  0
   -4.4598    0.4984    0.7045 H   0  0  0  0  0  0  0  0  0  0  0  0
   -4.2162    2.4084   -0.2303 H   0  0  0  0  0  0  0  0  0  0  0  0
  1  2  1  0
  2  3  1  0
  2  4  1  0
  4  5  1  0
  5  6  1  0
  6  7  2  0
  6  8  1  0
  8  9  1  0
  9 10  1  0
 10 11  1  0
  9 12  1  0
 12 13  1  0
  1 14  1  0
  1 15  1  0
  1 16  1  0
  2 17  1  1
  3 18  1  0
  4 19  1  0
  4 20  1  0
  5 21  1  0
  5 22  1  0
  8 23  1  0
  9 24  1  0
 10 25  1  0
 10 26  1  0
 11 27  1  0
 12 28  1  0
 12 29  1  0
 13 30  1  0
M  END
$$$$

     RDKit          3D

 30 29  0  0  0  0  0  0  0  0999 V2000
   -4.4658   -0.6967    0.7527 C   0  0  0  0  0  0  0  0  0  0  0  0
   -3.0067   -0.8891    0.2877 C   0  0  2  0  0  0  0  0  0  0  0  0
   -2.2633   -0.9706    1.4459 O   0  0  0  0  0  0  0  0  0  0  0  0
   -2.6122    0.2729   -0.5408 C   0  0  0  0  0  0  0  0  0  0  0  0
   -1.2510    0.3037   -1.1090 C   0  0  0  0  0  0  0  0  0  0  0  0
   -0.1169    0.3466   -0.1825 C   0  0  0  0  0  0  0  0  0  0  0  0
   -0.3027    0.5018    1.0363 O   0  0  0  0  0  0  0  0  0  0  0  0
    1.2308    0.2092   -0.6723 N   0  0  0  0  0  0  0  0  0  0  0  0
    2.3710    0.2440    0.1904 C   0  0  0  0  0  0  0  0  0  0  0  0
    3.0941   -1.1070    0.2325 C   0  0  0  0  0  0  0  0  0  0  0  0
    4.1928   -1.0157    1.0844 O   0  0  0  0  0  0  0  0  0  0  0  0
    3.3188    1.3648   -0.0794 C   0  0  0  0  0  0  0  0  0  0  0  0
    3.8556    1.3569   -1.3474 O   0  0  0  0  0  0  0  0  0  0  0  0
   -5.1135   -1.1676    0.0099 H   0  0  0  0  0  0  0  0  0  0  0  0
   -4.6540    0.3791    0.7541 H   0  0  0  0  0  0  0  0  0  0  0  0
   -4.6177   -1.1115    1.7514 H   0  0  0  0  0  0  0  0  0  0  0  0
   -2.9461   -1.8615   -0.2515 H   0  0  0  0  0  0  0  0  0  0  0  0
   -2.6754   -0.4020    2.1406 H   0  0  0  0  0  0  0  0  0  0  0  0
   -3.3182    0.2973   -1.4333 H   0  0  0  0  0  0  0  0  0  0  0  0
   -2.8617    1.2367   -0.0209 H   0  0  0  0  0  0  0  0  0  0  0  0
   -1.1451   -0.5687   -1.8187 H   0  0  0  0  0  0  0  0  0  0  0  0
   -1.2271    1.1971   -1.8188 H   0  0  0  0  0  0  0  0  0  0  0  0
    1.3096    0.0824   -1.7046 H   0  0  0  0  0  0  0  0  0  0  0  0
    1.9927    0.3910    1.2399 H   0  0  0  0  0  0  0  0  0  0  0  0
    3.3795   -1.4486   -0.7658 H   0  0  0  0  0  0  0  0  0  0  0  0
    2.4290   -1.8818    0.6649 H   0  0  0  0  0  0  0  0  0  0  0  0
    4.9785   -0.6400    0.5786 H   0  0  0  0  0  0  0  0  0  0  0  0
    4.1783    1.2415    0.6330 H   0  0  0  0  0  0  0  0  0  0  0  0
    2.8510    2.3283    0.1250 H   0  0  0  0  0  0  0  0  0  0  0  0
    3.3957    2.0073   -1.9623 H   0  0  0  0  0  0  0  0  0  0  0  0
  1  2  1  0
  2  3  1  0
  2  4  1  0
  4  5  1  0
  5  6  1  0
  6  7  2  0
  6  8  1  0
  8  9  1  0
  9 10  1  0
 10 11  1  0
  9 12  1  0
 12 13  1  0
  1 14  1  0
  1 15  1  0
  1 16  1  0
  2 17  1  6
  3 18  1  0
  4 19  1  0
  4 20  1  0
  5 21  1  0
  5 22  1  0
  8 23  1  0
  9 24  1  0
 10 25  1  0
 10 26  1  0
 11 27  1  0
 12 28  1  0
 12 29  1  0
 13 30  1  0
M  END
$$$$

     RDKit          3D

 30 29  0  0  0  0  0  0  0  0999 V2000
   -4.1943   -0.3741    0.4320 C   0  0  0  0  0  0  0  0  0  0  0  0
   -3.6951    0.8266   -0.3665 C   0  0  2  0  0  0  0  0  0  0  0  0
   -4.5476    0.9947   -1.4353 O   0  0  0  0  0  0  0  0  0  0  0  0
   -2.2986    0.5997   -0.8488 C   0  0  0  0  0  0  0  0  0  0  0  0
   -1.3163    0.3792    0.2668 C   0  0  0  0  0  0  0  0  0  0  0  0
    0.0419    0.1617   -0.2762 C   0  0  0  0  0  0  0  0  0  0  0  0
    0.1958    0.1867   -1.5245 O   0  0  0  0  0  0  0  0  0  0  0  0
    1.1727   -0.0737    0.5671 N   0  0  0  0  0  0  0  0  0  0  0  0
    2.4776   -0.2816    0.0188 C   0  0  0  0  0  0  0  0  0  0  0  0
    3.3548    0.8855    0.4661 C   0  0  0  0  0  0  0  0  0  0  0  0
    4.6493    0.7521   -0.0324 O   0  0  0  0  0  0  0  0  0  0  0  0
    3.1404   -1.5526    0.5005 C   0  0  0  0  0  0  0  0  0  0  0  0
    4.4016   -1.6012   -0.1294 O   0  0  0  0  0  0  0  0  0  0  0  0
   -5.2630   -0.5157    0.2443 H   0  0  0  0  0  0  0  0  0  0  0  0
   -4.0198   -0.1639    1.5133 H   0  0  0  0  0  0  0  0  0  0  0  0
   -3.6170   -1.2666    0.0875 H   0  0  0  0  0  0  0  0  0  0  0  0
   -3.7550    1.7271    0.2792 H   0  0  0  0  0  0  0  0  0  0  0  0
   -4.8102    0.0887   -1.7778 H   0  0  0  0  0  0  0  0  0  0  0  0
   -2.3001   -0.2298   -1.5852 H   0  0  0  0  0  0  0  0  0  0  0  0
   -1.9830    1.5112   -1.4041 H   0  0  0  0  0  0  0  0  0  0  0  0
   -1.2895    1.3036    0.8804 H   0  0  0  0  0  0  0  0  0  0  0  0
   -1.6698   -0.4877    0.8662 H   0  0  0  0  0  0  0  0  0  0  0  0
    0.9812   -0.0827    1.5916 H   0  0  0  0  0  0  0  0  0  0  0  0
    2.4408   -0.2288   -1.0825 H   0  0  0  0  0  0  0  0  0  0  0  0
    2.8919    1.8371    0.1290 H   0  0  0  0  0  0  0  0  0  0  0  0
    3.4188    0.8744    1.5749 H   0  0  0  0  0  0  0  0  0  0  0  0
    5.3262    0.9076    0.6814 H   0  0  0  0  0  0  0  0  0  0  0  0
    3.3431   -1.5052    1.5895 H   0  0  0  0  0  0  0  0  0  0  0  0
    2.5685   -2.4577    0.2994 H   0  0  0  0  0  0  0  0  0  0  0  0
    4.3544   -2.2144   -0.8933 H   0  0  0  0  0  0  0  0  0  0  0  0
  1  2  1  0
  2  3  1  0
  2  4  1  0
  4  5  1  0
  5  6  1  0
  6  7  2  0
  6  8  1  0
  8  9  1  0
  9 10  1  0
 10 11  1  0
  9 12  1  0
 12 13  1  0
  1 14  1  0
  1 15  1  0
  1 16  1  0
  2 17  1  1
  3 18  1  0
  4 19  1  0
  4 20  1  0
  5 21  1  0
  5 22  1  0
  8 23  1  0
  9 24  1  0
 10 25  1  0
 10 26  1  0
 11 27  1  0
 12 28  1  0
 12 29  1  0
 13 30  1  0
M  END
$$$$

     RDKit          3D

 30 29  0  0  0  0  0  0  0  0999 V2000
   -3.0443   -1.2603    1.0345 C   0  0  0  0  0  0  0  0  0  0  0  0
   -2.9591    0.1858    0.5733 C   0  0  2  0  0  0  0  0  0  0  0  0
   -4.2931    0.6711    0.6179 O   0  0  0  0  0  0  0  0  0  0  0  0
   -2.5542    0.2785   -0.8720 C   0  0  0  0  0  0  0  0  0  0  0  0
   -1.2364   -0.3200   -1.2025 C   0  0  0  0  0  0  0  0  0  0  0  0
   -0.1367    0.3344   -0.4808 C   0  0  0  0  0  0  0  0  0  0  0  0
   -0.3966    1.3123    0.2632 O   0  0  0  0  0  0  0  0  0  0  0  0
    1.2283   -0.1155   -0.6042 N   0  0  0  0  0  0  0  0  0  0  0  0
    2.2335    0.5815    0.1353 C   0  0  0  0  0  0  0  0  0  0  0  0
    3.2031    1.1852   -0.8583 C   0  0  0  0  0  0  0  0  0  0  0  0
    3.7750    0.1669   -1.6159 O   0  0  0  0  0  0  0  0  0  0  0  0
    3.0248   -0.3306    1.0478 C   0  0  0  0  0  0  0  0  0  0  0  0
    2.2527   -0.9706    1.9857 O   0  0  0  0  0  0  0  0  0  0  0  0
   -3.9660   -1.4460    1.6247 H   0  0  0  0  0  0  0  0  0  0  0  0
   -2.9755   -1.9073    0.1527 H   0  0  0  0  0  0  0  0  0  0  0  0
   -2.1877   -1.4316    1.7226 H   0  0  0  0  0  0  0  0  0  0  0  0
   -2.3830    0.7985    1.2671 H   0  0  0  0  0  0  0  0  0  0  0  0
   -4.3735    1.3898   -0.0530 H   0  0  0  0  0  0  0  0  0  0  0  0
   -3.3642   -0.1879   -1.4727 H   0  0  0  0  0  0  0  0  0  0  0  0
   -2.5765    1.3732   -1.1275 H   0  0  0  0  0  0  0  0  0  0  0  0
   -1.0548   -0.4052   -2.2897 H   0  0  0  0  0  0  0  0  0  0  0  0
   -1.2618   -1.3828   -0.8212 H   0  0  0  0  0  0  0  0  0  0  0  0
    1.3910   -0.9232   -1.2279 H   0  0  0  0  0  0  0  0  0  0  0  0
    1.7711    1.3967    0.7123 H   0  0  0  0  0  0  0  0  0  0  0  0
    4.0150    1.7086   -0.3010 H   0  0  0  0  0  0  0  0  0  0  0  0
    2.6753    1.8952   -1.5402 H   0  0  0  0  0  0  0  0  0  0  0  0
    3.2321   -0.0587   -2.3895 H   0  0  0  0  0  0  0  0  0  0  0  0
    3.7401    0.3339    1.6021 H   0  0  0  0  0  0  0  0  0  0  0  0
    3.6543   -1.0057    0.4351 H   0  0  0  0  0  0  0  0  0  0  0  0
    2.5672   -1.8665    2.2360 H   0  0  0  0  0  0  0  0  0  0  0  0
  1  2  1  0
  2  3  1  0
  2  4  1  0
  4  5  1  0
  5  6  1  0
  6  7  2  0
  6  8  1  0
  8  9  1  0
  9 10  1  0
 10 11  1  0
  9 12  1  0
 12 13  1  0
  1 14  1  0
  1 15  1  0
  1 16  1  0
  2 17  1  1
  3 18  1  0
  4 19  1  0
  4 20  1  0
  5 21  1  0
  5 22  1  0
  8 23  1  0
  9 24  1  0
 10 25  1  0
 10 26  1  0
 11 27  1  0
 12 28  1  0
 12 29  1  0
 13 30  1  0
M  END
$$$$

     RDKit          3D

 30 29  0  0  0  0  0  0  0  0999 V2000
   -4.0063    0.9803    0.0074 C   0  0  0  0  0  0  0  0  0  0  0  0
   -3.6350   -0.3831    0.5409 C   0  0  2  0  0  0  0  0  0  0  0  0
   -4.4261   -0.6164    1.6595 O   0  0  0  0  0  0  0  0  0  0  0  0
   -2.2033   -0.4706    0.9594 C   0  0  0  0  0  0  0  0  0  0  0  0
   -1.2547   -0.1875   -0.1979 C   0  0  0  0  0  0  0  0  0  0  0  0
    0.1415   -0.2828    0.2516 C   0  0  0  0  0  0  0  0  0  0  0  0
    0.4030   -0.5650    1.4463 O   0  0  0  0  0  0  0  0  0  0  0  0
    1.2157   -0.0604   -0.6450 N   0  0  0  0  0  0  0  0  0  0  0  0
    2.5910   -0.1476   -0.2302 C   0  0  0  0  0  0  0  0  0  0  0  0
    3.3367   -1.1947   -1.0091 C   0  0  0  0  0  0  0  0  0  0  0  0
    4.6583   -1.2438   -0.5757 O   0  0  0  0  0  0  0  0  0  0  0  0
    3.2318    1.2102   -0.3987 C   0  0  0  0  0  0  0  0  0  0  0  0
    2.5401    2.1287    0.3974 O   0  0  0  0  0  0  0  0  0  0  0  0
   -3.7215    1.7119    0.8187 H   0  0  0  0  0  0  0  0  0  0  0  0
   -3.4562    1.2542   -0.9070 H   0  0  0  0  0  0  0  0  0  0  0  0
   -5.1088    0.9994   -0.1121 H   0  0  0  0  0  0  0  0  0  0  0  0
   -3.8731   -1.1654   -0.2198 H   0  0  0  0  0  0  0  0  0  0  0  0
   -4.9738    0.1690    1.9184 H   0  0  0  0  0  0  0  0  0  0  0  0
   -2.0442    0.2639    1.7869 H   0  0  0  0  0  0  0  0  0  0  0  0
   -2.0297   -1.4839    1.3672 H   0  0  0  0  0  0  0  0  0  0  0  0
   -1.4853   -0.9126   -0.9998 H   0  0  0  0  0  0  0  0  0  0  0  0
   -1.4758    0.8543   -0.5214 H   0  0  0  0  0  0  0  0  0  0  0  0
    1.0221    0.1784   -1.6547 H   0  0  0  0  0  0  0  0  0  0  0  0
    2.6492   -0.4024    0.8414 H   0  0  0  0  0  0  0  0  0  0  0  0
    2.8558   -2.1780   -0.8524 H   0  0  0  0  0  0  0  0  0  0  0  0
    3.2807   -0.9798   -2.1126 H   0  0  0  0  0  0  0  0  0  0  0  0
    5.2053   -1.7803   -1.1969 H   0  0  0  0  0  0  0  0  0  0  0  0
    4.2829    1.1779   -0.0497 H   0  0  0  0  0  0  0  0  0  0  0  0
    3.1760    1.5056   -1.4632 H   0  0  0  0  0  0  0  0  0  0  0  0
    3.1038    2.4690    1.1510 H   0  0  0  0  0  0  0  0  0  0  0  0
  1  2  1  0
  2  3  1  0
  2  4  1  0
  4  5  1  0
  5  6  1  0
  6  7  2  0
  6  8  1  0
  8  9  1  0
  9 10  1  0
 10 11  1  0
  9 12  1  0
 12 13  1  0
  1 14  1  0
  1 15  1  0
  1 16  1  0
  2 17  1  6
  3 18  1  0
  4 19  1  0
  4 20  1  0
  5 21  1  0
  5 22  1  0
  8 23  1  0
  9 24  1  0
 10 25  1  0
 10 26  1  0
 11 27  1  0
 12 28  1  0
 12 29  1  0
 13 30  1  0
M  END
$$$$
