
     RDKit          3D

 25 26  0  0  0  0  0  0  0  0999 V2000
    4.9385   -0.5695   -0.6827 C   0  0  0  0  0  0  0  0  0  0  0  0
    4.6376    0.4704    0.1397 O   0  0  0  0  0  0  0  0  0  0  0  0
    3.3414    0.7316    0.3428 N   0  0  0  0  0  0  0  0  0  0  0  0
    2.2487   -0.1200    0.0398 C   0  0  0  0  0  0  0  0  0  0  0  0
    2.4695   -1.2391   -0.4682 O   0  0  0  0  0  0  0  0  0  0  0  0
    0.9080    0.3464    0.3322 C   0  0  0  0  0  0  0  0  0  0  0  0
   -0.3123   -0.2837    0.0741 C   0  0  0  0  0  0  0  0  0  0  0  0
   -1.3055    0.5042    0.5114 N   0  0  0  0  0  0  0  0  0  0  0  0
   -2.7377    0.3335    0.4883 C   0  0  0  0  0  0  0  0  0  0  0  0
   -3.4173    0.8113   -0.7720 C   0  0  0  0  0  0  0  0  0  0  0  0
   -4.3771   -0.2732   -0.5566 N   0  0  0  0  0  0  0  0  0  0  0  0
   -3.2530   -0.9939    0.0665 C   0  0  0  0  0  0  0  0  0  0  0  0
   -0.7362    1.5839    1.0236 N   0  0  0  0  0  0  0  0  0  0  0  0
    0.5562    1.5121    0.9289 N   0  0  0  0  0  0  0  0  0  0  0  0
    6.0073   -0.4583   -0.9980 H   0  0  0  0  0  0  0  0  0  0  0  0
    4.8155   -1.5294   -0.1538 H   0  0  0  0  0  0  0  0  0  0  0  0
    4.3341   -0.5089   -1.6108 H   0  0  0  0  0  0  0  0  0  0  0  0
    3.1592    1.6932    0.7818 H   0  0  0  0  0  0  0  0  0  0  0  0
   -0.4470   -1.2326   -0.3912 H   0  0  0  0  0  0  0  0  0  0  0  0
   -3.2268    0.6918    1.4296 H   0  0  0  0  0  0  0  0  0  0  0  0
   -3.8565    1.8188   -0.7407 H   0  0  0  0  0  0  0  0  0  0  0  0
   -2.7593    0.6046   -1.6574 H   0  0  0  0  0  0  0  0  0  0  0  0
   -4.7378   -0.7149   -1.4133 H   0  0  0  0  0  0  0  0  0  0  0  0
   -3.5577   -1.6747    0.8788 H   0  0  0  0  0  0  0  0  0  0  0  0
   -2.6919   -1.5035   -0.7317 H   0  0  0  0  0  0  0  0  0  0  0  0
  1  2  1  0
  2  3  1  0
  3  4  1  0
  4  5  2  0
  4  6  1  0
  6  7  2  0
  7  8  1  0
  8  9  1  0
  9 10  1  0
 10 11  1  0
 11 12  1  0
  8 13  1  0
 13 14  2  0
 14  6  1  0
 12  9  1  0
  1 15  1  0
  1 16  1  0
  1 17  1  0
  3 18  1  0
  7 19  1  0
  9 20  1  0
 10 21  1  0
 10 22  1  0
 11 23  1  0
 12 24  1  0
 12 25  1  0
M  END
$$$$

     RDKit          3D

 25 26  0  0  0  0  0  0  0  0999 V2000
   -5.0192   -0.2239    0.0131 C   0  0  0  0  0  0  0  0  0  0  0  0
   -4.1721   -0.5339    1.0489 O   0  0  0  0  0  0  0  0  0  0  0  0
   -2.8609   -0.4446    0.7542 N   0  0  0  0  0  0  0  0  0  0  0  0
   -2.2478    0.7167    0.2230 C   0  0  0  0  0  0  0  0  0  0  0  0
   -2.9412    1.7347    0.0008 O   0  0  0  0  0  0  0  0  0  0  0  0
   -0.8251    0.7629   -0.0723 C   0  0  0  0  0  0  0  0  0  0  0  0
    0.0904   -0.2538    0.0827 C   0  0  0  0  0  0  0  0  0  0  0  0
    1.3078    0.1675   -0.2904 N   0  0  0  0  0  0  0  0  0  0  0  0
    2.4882   -0.6733   -0.2438 C   0  0  0  0  0  0  0  0  0  0  0  0
    3.3262   -0.2705    0.9704 C   0  0  0  0  0  0  0  0  0  0  0  0
    4.0072    0.6802    0.0968 N   0  0  0  0  0  0  0  0  0  0  0  0
    3.6713   -0.1790   -1.0167 C   0  0  0  0  0  0  0  0  0  0  0  0
    1.1521    1.4029   -0.6641 N   0  0  0  0  0  0  0  0  0  0  0  0
   -0.1058    1.8008   -0.5508 N   0  0  0  0  0  0  0  0  0  0  0  0
   -5.7098    0.5779    0.3928 H   0  0  0  0  0  0  0  0  0  0  0  0
   -4.4208    0.1163   -0.8493 H   0  0  0  0  0  0  0  0  0  0  0  0
   -5.5837   -1.1100   -0.3331 H   0  0  0  0  0  0  0  0  0  0  0  0
   -2.2152   -1.2667    0.9137 H   0  0  0  0  0  0  0  0  0  0  0  0
   -0.1689   -1.2317    0.4536 H   0  0  0  0  0  0  0  0  0  0  0  0
    2.2913   -1.7516   -0.2638 H   0  0  0  0  0  0  0  0  0  0  0  0
    2.7185    0.2105    1.7645 H   0  0  0  0  0  0  0  0  0  0  0  0
    3.9940   -1.0658    1.2924 H   0  0  0  0  0  0  0  0  0  0  0  0
    3.4282    1.5490    0.0362 H   0  0  0  0  0  0  0  0  0  0  0  0
    4.3905   -1.0407   -1.1771 H   0  0  0  0  0  0  0  0  0  0  0  0
    3.4048    0.3261   -1.9463 H   0  0  0  0  0  0  0  0  0  0  0  0
  1  2  1  0
  2  3  1  0
  3  4  1  0
  4  5  2  0
  4  6  1  0
  6  7  2  0
  7  8  1  0
  8  9  1  0
  9 10  1  0
 10 11  1  0
 11 12  1  0
  8 13  1  0
 13 14  2  0
 14  6  1  0
 12  9  1  0
  1 15  1  0
  1 16  1  0
  1 17  1  0
  3 18  1  0
  7 19  1  0
  9 20  1  0
 10 21  1  0
 10 22  1  0
 11 23  1  0
 12 24  1  0
 12 25  1  0
M  END
$$$$

     RDKit          3D

 25 26  0  0  0  0  0  0  0  0999 V2000
    4.9357    0.3212   -0.2283 C   0  0  0  0  0  0  0  0  0  0  0  0
    4.4949   -0.9299    0.1756 O   0  0  0  0  0  0  0  0  0  0  0  0
    3.2291   -1.1620   -0.2267 N   0  0  0  0  0  0  0  0  0  0  0  0
    2.1458   -0.3407    0.1792 C   0  0  0  0  0  0  0  0  0  0  0  0
    2.3423    0.6414    0.9379 O   0  0  0  0  0  0  0  0  0  0  0  0
    0.8002   -0.6509   -0.2957 C   0  0  0  0  0  0  0  0  0  0  0  0
   -0.3344    0.0550    0.0197 C   0  0  0  0  0  0  0  0  0  0  0  0
   -1.3932   -0.5025   -0.5870 N   0  0  0  0  0  0  0  0  0  0  0  0
   -2.7669   -0.1064   -0.5451 C   0  0  0  0  0  0  0  0  0  0  0  0
   -3.4725   -0.2472    0.7873 C   0  0  0  0  0  0  0  0  0  0  0  0
   -4.1880    0.9892    0.4198 N   0  0  0  0  0  0  0  0  0  0  0  0
   -2.9270    1.3683   -0.2453 C   0  0  0  0  0  0  0  0  0  0  0  0
   -0.9045   -1.5494   -1.2731 N   0  0  0  0  0  0  0  0  0  0  0  0
    0.4019   -1.6432   -1.1035 N   0  0  0  0  0  0  0  0  0  0  0  0
    4.5921    1.1117    0.4401 H   0  0  0  0  0  0  0  0  0  0  0  0
    6.0608    0.2844   -0.1631 H   0  0  0  0  0  0  0  0  0  0  0  0
    4.6825    0.5337   -1.2995 H   0  0  0  0  0  0  0  0  0  0  0  0
    3.0589   -1.9731   -0.8544 H   0  0  0  0  0  0  0  0  0  0  0  0
   -0.3377    0.9202    0.6604 H   0  0  0  0  0  0  0  0  0  0  0  0
   -3.3862   -0.4065   -1.4151 H   0  0  0  0  0  0  0  0  0  0  0  0
   -2.7947   -0.0123    1.6195 H   0  0  0  0  0  0  0  0  0  0  0  0
   -4.1107   -1.1272    0.8959 H   0  0  0  0  0  0  0  0  0  0  0  0
   -4.8600    0.7213   -0.3598 H   0  0  0  0  0  0  0  0  0  0  0  0
   -3.0613    2.0233   -1.1208 H   0  0  0  0  0  0  0  0  0  0  0  0
   -2.2071    1.6815    0.5112 H   0  0  0  0  0  0  0  0  0  0  0  0
  1  2  1  0
  2  3  1  0
  3  4  1  0
  4  5  2  0
  4  6  1  0
  6  7  2  0
  7  8  1  0
  8  9  1  0
  9 10  1  0
 10 11  1  0
 11 12  1  0
  8 13  1  0
 13 14  2  0
 14  6  1  0
 12  9  1  0
  1 15  1  0
  1 16  1  0
  1 17  1  0
  3 18  1  0
  7 19  1  0
  9 20  1  0
 10 21  1  0
 10 22  1  0
 11 23  1  0
 12 24  1  0
 12 25  1  0
M  END
$$$$

     RDKit          3D

 25 26  0  0  0  0  0  0  0  0999 V2000
   -4.9201   -0.3357   -0.1204 C   0  0  0  0  0  0  0  0  0  0  0  0
   -4.1322    0.2107    0.8656 O   0  0  0  0  0  0  0  0  0  0  0  0
   -2.8107    0.2361    0.5227 N   0  0  0  0  0  0  0  0  0  0  0  0
   -1.9132    0.7451    1.4912 C   0  0  0  0  0  0  0  0  0  0  0  0
   -2.2900    1.1606    2.6241 O   0  0  0  0  0  0  0  0  0  0  0  0
   -0.4981    0.8028    1.1947 C   0  0  0  0  0  0  0  0  0  0  0  0
    0.0725    0.3952   -0.0075 C   0  0  0  0  0  0  0  0  0  0  0  0
    1.3913    0.6101    0.1283 N   0  0  0  0  0  0  0  0  0  0  0  0
    2.3664    0.3168   -0.9172 C   0  0  0  0  0  0  0  0  0  0  0  0
    3.7569    0.3959   -0.3806 C   0  0  0  0  0  0  0  0  0  0  0  0
    3.8398   -1.0450   -0.4954 N   0  0  0  0  0  0  0  0  0  0  0  0
    2.5271   -1.1569   -1.1496 C   0  0  0  0  0  0  0  0  0  0  0  0
    1.6482    1.1133    1.3175 N   0  0  0  0  0  0  0  0  0  0  0  0
    0.5115    1.2401    1.9866 N   0  0  0  0  0  0  0  0  0  0  0  0
   -4.2881   -0.9610   -0.8168 H   0  0  0  0  0  0  0  0  0  0  0  0
   -5.4158    0.4756   -0.6573 H   0  0  0  0  0  0  0  0  0  0  0  0
   -5.7120   -0.9722    0.3489 H   0  0  0  0  0  0  0  0  0  0  0  0
   -2.4625   -0.1012   -0.4073 H   0  0  0  0  0  0  0  0  0  0  0  0
   -0.3894   -0.0099   -0.8887 H   0  0  0  0  0  0  0  0  0  0  0  0
    2.1549    0.8796   -1.8510 H   0  0  0  0  0  0  0  0  0  0  0  0
    4.4310    0.9619   -1.0350 H   0  0  0  0  0  0  0  0  0  0  0  0
    3.8343    0.7475    0.6840 H   0  0  0  0  0  0  0  0  0  0  0  0
    3.8300   -1.5676    0.3930 H   0  0  0  0  0  0  0  0  0  0  0  0
    2.6738   -1.4677   -2.2048 H   0  0  0  0  0  0  0  0  0  0  0  0
    1.7943   -1.7702   -0.6251 H   0  0  0  0  0  0  0  0  0  0  0  0
  1  2  1  0
  2  3  1  0
  3  4  1  0
  4  5  2  0
  4  6  1  0
  6  7  2  0
  7  8  1  0
  8  9  1  0
  9 10  1  0
 10 11  1  0
 11 12  1  0
  8 13  1  0
 13 14  2  0
 14  6  1  0
 12  9  1  0
  1 15  1  0
  1 16  1  0
  1 17  1  0
  3 18  1  0
  7 19  1  0
  9 20  1  0
 10 21  1  0
 10 22  1  0
 11 23  1  0
 12 24  1  0
 12 25  1  0
M  END
$$$$

     RDKit          3D

 25 26  0  0  0  0  0  0  0  0999 V2000
    5.2903   -0.1096    0.2999 C   0  0  0  0  0  0  0  0  0  0  0  0
    4.3841   -0.8471   -0.4782 O   0  0  0  0  0  0  0  0  0  0  0  0
    3.2225   -0.1195   -0.4837 N   0  0  0  0  0  0  0  0  0  0  0  0
    1.9579   -0.6640   -0.1690 C   0  0  0  0  0  0  0  0  0  0  0  0
    1.8694   -1.8740    0.1345 O   0  0  0  0  0  0  0  0  0  0  0  0
    0.7887    0.1997   -0.2108 C   0  0  0  0  0  0  0  0  0  0  0  0
   -0.5583   -0.1898   -0.1256 C   0  0  0  0  0  0  0  0  0  0  0  0
   -1.3415    0.8968   -0.1718 N   0  0  0  0  0  0  0  0  0  0  0  0
   -2.7903    0.8381   -0.1244 C   0  0  0  0  0  0  0  0  0  0  0  0
   -3.3678   -0.2672   -1.0163 C   0  0  0  0  0  0  0  0  0  0  0  0
   -4.3579   -0.4903   -0.0132 N   0  0  0  0  0  0  0  0  0  0  0  0
   -3.4036    0.0261    0.9790 C   0  0  0  0  0  0  0  0  0  0  0  0
   -0.5549    1.9431   -0.2831 N   0  0  0  0  0  0  0  0  0  0  0  0
    0.7005    1.5336   -0.3075 N   0  0  0  0  0  0  0  0  0  0  0  0
    4.9877    0.9540    0.3392 H   0  0  0  0  0  0  0  0  0  0  0  0
    6.2451   -0.1675   -0.2122 H   0  0  0  0  0  0  0  0  0  0  0  0
    5.3302   -0.5227    1.3317 H   0  0  0  0  0  0  0  0  0  0  0  0
    3.3417    0.8946   -0.7483 H   0  0  0  0  0  0  0  0  0  0  0  0
   -0.8395   -1.2497   -0.0329 H   0  0  0  0  0  0  0  0  0  0  0  0
   -3.2885    1.7935   -0.3696 H   0  0  0  0  0  0  0  0  0  0  0  0
   -3.6937    0.1137   -2.0079 H   0  0  0  0  0  0  0  0  0  0  0  0
   -2.5940   -1.0723   -1.0774 H   0  0  0  0  0  0  0  0  0  0  0  0
   -4.6954   -1.4463    0.1384 H   0  0  0  0  0  0  0  0  0  0  0  0
   -2.7043   -0.7619    1.3343 H   0  0  0  0  0  0  0  0  0  0  0  0
   -3.9284    0.5885    1.7901 H   0  0  0  0  0  0  0  0  0  0  0  0
  1  2  1  0
  2  3  1  0
  3  4  1  0
  4  5  2  0
  4  6  1  0
  6  7  2  0
  7  8  1  0
  8  9  1  0
  9 10  1  0
 10 11  1  0
 11 12  1  0
  8 13  1  0
 13 14  2  0
 14  6  1  0
 12  9  1  0
  1 15  1  0
  1 16  1  0
  1 17  1  0
  3 18  1  0
  7 19  1  0
  9 20  1  0
 10 21  1  0
 10 22  1  0
 11 23  1  0
 12 24  1  0
 12 25  1  0
M  END
$$$$

     RDKit          3D

 25 26  0  0  0  0  0  0  0  0999 V2000
    4.9634    0.6746    0.2812 C   0  0  0  0  0  0  0  0  0  0  0  0
    4.4430   -0.2193   -0.6588 O   0  0  0  0  0  0  0  0  0  0  0  0
    3.0818   -0.1561   -0.6775 N   0  0  0  0  0  0  0  0  0  0  0  0
    2.3789   -0.8553    0.3325 C   0  0  0  0  0  0  0  0  0  0  0  0
    3.0177   -1.4977    1.1925 O   0  0  0  0  0  0  0  0  0  0  0  0
    0.9241   -0.8234    0.3702 C   0  0  0  0  0  0  0  0  0  0  0  0
    0.0709   -0.0535   -0.4103 C   0  0  0  0  0  0  0  0  0  0  0  0
   -1.2013   -0.3081   -0.0625 N   0  0  0  0  0  0  0  0  0  0  0  0
   -2.3198    0.3452   -0.6453 C   0  0  0  0  0  0  0  0  0  0  0  0
   -3.4677    0.6065    0.3605 C   0  0  0  0  0  0  0  0  0  0  0  0
   -4.3273    0.5887   -0.8090 N   0  0  0  0  0  0  0  0  0  0  0  0
   -3.3791   -0.4208   -1.3395 C   0  0  0  0  0  0  0  0  0  0  0  0
   -1.1403   -1.2091    0.9025 N   0  0  0  0  0  0  0  0  0  0  0  0
    0.1195   -1.5332    1.1802 N   0  0  0  0  0  0  0  0  0  0  0  0
    5.4554    0.0880    1.0609 H   0  0  0  0  0  0  0  0  0  0  0  0
    5.6567    1.3253   -0.2772 H   0  0  0  0  0  0  0  0  0  0  0  0
    4.1647    1.3451    0.6864 H   0  0  0  0  0  0  0  0  0  0  0  0
    2.5885    0.3913   -1.4144 H   0  0  0  0  0  0  0  0  0  0  0  0
    0.4369    0.6274   -1.1729 H   0  0  0  0  0  0  0  0  0  0  0  0
   -2.1215    1.3168   -1.1503 H   0  0  0  0  0  0  0  0  0  0  0  0
   -3.3948    1.5593    0.8783 H   0  0  0  0  0  0  0  0  0  0  0  0
   -3.7110   -0.2857    0.9849 H   0  0  0  0  0  0  0  0  0  0  0  0
   -5.2831    0.2594   -0.6607 H   0  0  0  0  0  0  0  0  0  0  0  0
   -3.5847   -1.4417   -0.9705 H   0  0  0  0  0  0  0  0  0  0  0  0
   -3.3710   -0.3238   -2.4645 H   0  0  0  0  0  0  0  0  0  0  0  0
  1  2  1  0
  2  3  1  0
  3  4  1  0
  4  5  2  0
  4  6  1  0
  6  7  2  0
  7  8  1  0
  8  9  1  0
  9 10  1  0
 10 11  1  0
 11 12  1  0
  8 13  1  0
 13 14  2  0
 14  6  1  0
 12  9  1  0
  1 15  1  0
  1 16  1  0
  1 17  1  0
  3 18  1  0
  7 19  1  0
  9 20  1  0
 10 21  1  0
 10 22  1  0
 11 23  1  0
 12 24  1  0
 12 25  1  0
M  END
$$$$

     RDKit          3D

 25 26  0  0  0  0  0  0  0  0999 V2000
    5.0583    0.5572   -0.3315 C   0  0  0  0  0  0  0  0  0  0  0  0
    4.5038   -0.6678   -0.7734 O   0  0  0  0  0  0  0  0  0  0  0  0
    3.2978   -0.7352   -0.1774 N   0  0  0  0  0  0  0  0  0  0  0  0
    2.0562   -0.5329   -0.8281 C   0  0  0  0  0  0  0  0  0  0  0  0
    2.0567   -0.2729   -2.0501 O   0  0  0  0  0  0  0  0  0  0  0  0
    0.7904   -0.6282   -0.0729 C   0  0  0  0  0  0  0  0  0  0  0  0
   -0.4507   -0.3941   -0.5718 C   0  0  0  0  0  0  0  0  0  0  0  0
   -1.3227   -0.5912    0.4381 N   0  0  0  0  0  0  0  0  0  0  0  0
   -2.7649   -0.4707    0.4830 C   0  0  0  0  0  0  0  0  0  0  0  0
   -3.1107    1.0080    0.7276 C   0  0  0  0  0  0  0  0  0  0  0  0
   -4.2466    0.7929   -0.1544 N   0  0  0  0  0  0  0  0  0  0  0  0
   -3.4727   -0.2448   -0.8126 C   0  0  0  0  0  0  0  0  0  0  0  0
   -0.6353   -0.9379    1.5288 N   0  0  0  0  0  0  0  0  0  0  0  0
    0.6271   -0.9600    1.2193 N   0  0  0  0  0  0  0  0  0  0  0  0
    4.7681    1.3149   -1.1070 H   0  0  0  0  0  0  0  0  0  0  0  0
    6.1323    0.5061   -0.1512 H   0  0  0  0  0  0  0  0  0  0  0  0
    4.5738    0.9205    0.6044 H   0  0  0  0  0  0  0  0  0  0  0  0
    3.2712   -0.9474    0.8397 H   0  0  0  0  0  0  0  0  0  0  0  0
   -0.7471   -0.1007   -1.5786 H   0  0  0  0  0  0  0  0  0  0  0  0
   -3.2578   -1.1244    1.2052 H   0  0  0  0  0  0  0  0  0  0  0  0
   -2.3423    1.6650    0.2529 H   0  0  0  0  0  0  0  0  0  0  0  0
   -3.3466    1.2360    1.7763 H   0  0  0  0  0  0  0  0  0  0  0  0
   -4.4871    1.6267   -0.7272 H   0  0  0  0  0  0  0  0  0  0  0  0
   -2.8146    0.0807   -1.6326 H   0  0  0  0  0  0  0  0  0  0  0  0
   -4.1367   -1.0998   -1.1382 H   0  0  0  0  0  0  0  0  0  0  0  0
  1  2  1  0
  2  3  1  0
  3  4  1  0
  4  5  2  0
  4  6  1  0
  6  7  2  0
  7  8  1  0
  8  9  1  0
  9 10  1  0
 10 11  1  0
 11 12  1  0
  8 13  1  0
 13 14  2  0
 14  6  1  0
 12  9  1  0
  1 15  1  0
  1 16  1  0
  1 17  1  0
  3 18  1  0
  7 19  1  0
  9 20  1  0
 10 21  1  0
 10 22  1  0
 11 23  1  0
 12 24  1  0
 12 25  1  0
M  END
$$$$

     RDKit          3D

 25 26  0  0  0  0  0  0  0  0999 V2000
    4.8793   -0.7446    0.6940 C   0  0  0  0  0  0  0  0  0  0  0  0
    4.5537    0.5502    0.3528 O   0  0  0  0  0  0  0  0  0  0  0  0
    3.3504    0.6477   -0.2426 N   0  0  0  0  0  0  0  0  0  0  0  0
    2.1375    0.2220    0.3622 C   0  0  0  0  0  0  0  0  0  0  0  0
    2.2376   -0.2691    1.5220 O   0  0  0  0  0  0  0  0  0  0  0  0
    0.8467    0.3394   -0.3054 C   0  0  0  0  0  0  0  0  0  0  0  0
   -0.3750   -0.0441    0.2011 C   0  0  0  0  0  0  0  0  0  0  0  0
   -1.2648    0.2552   -0.7625 N   0  0  0  0  0  0  0  0  0  0  0  0
   -2.6879    0.0316   -0.6847 C   0  0  0  0  0  0  0  0  0  0  0  0
   -3.4432    1.0433    0.1710 C   0  0  0  0  0  0  0  0  0  0  0  0
   -4.3217   -0.0740    0.5544 N   0  0  0  0  0  0  0  0  0  0  0  0
   -3.1269   -0.9228    0.4203 C   0  0  0  0  0  0  0  0  0  0  0  0
   -0.6709    0.7877   -1.8058 N   0  0  0  0  0  0  0  0  0  0  0  0
    0.6238    0.8402   -1.5275 N   0  0  0  0  0  0  0  0  0  0  0  0
    4.0199   -1.4225    0.5156 H   0  0  0  0  0  0  0  0  0  0  0  0
    5.7225   -1.1544    0.0675 H   0  0  0  0  0  0  0  0  0  0  0  0
    5.2426   -0.8438    1.7455 H   0  0  0  0  0  0  0  0  0  0  0  0
    3.3112    1.0584   -1.1985 H   0  0  0  0  0  0  0  0  0  0  0  0
   -0.5154   -0.4871    1.1771 H   0  0  0  0  0  0  0  0  0  0  0  0
   -3.1948   -0.2333   -1.6292 H   0  0  0  0  0  0  0  0  0  0  0  0
   -3.9574    1.8326   -0.3955 H   0  0  0  0  0  0  0  0  0  0  0  0
   -2.8208    1.3501    1.0174 H   0  0  0  0  0  0  0  0  0  0  0  0
   -4.7027   -0.0159    1.5035 H   0  0  0  0  0  0  0  0  0  0  0  0
   -3.3201   -1.9396    0.0682 H   0  0  0  0  0  0  0  0  0  0  0  0
   -2.5236   -0.8069    1.3313 H   0  0  0  0  0  0  0  0  0  0  0  0
  1  2  1  0
  2  3  1  0
  3  4  1  0
  4  5  2  0
  4  6  1  0
  6  7  2  0
  7  8  1  0
  8  9  1  0
  9 10  1  0
 10 11  1  0
 11 12  1  0
  8 13  1  0
 13 14  2  0
 14  6  1  0
 12  9  1  0
  1 15  1  0
  1 16  1  0
  1 17  1  0
  3 18  1  0
  7 19  1  0
  9 20  1  0
 10 21  1  0
 10 22  1  0
 11 23  1  0
 12 24  1  0
 12 25  1  0
M  END
$$$$
