
     RDKit          3D

 29 29  0  0  0  0  0  0  0  0999 V2000
   -3.9605    0.8216    0.1285 C   0  0  0  0  0  0  0  0  0  0  0  0
   -3.1930   -0.3440   -0.4098 C   0  0  0  0  0  0  0  0  0  0  0  0
   -3.6655   -1.0867   -1.2921 O   0  0  0  0  0  0  0  0  0  0  0  0
   -1.8957   -0.6116    0.0990 N   0  0  0  0  0  0  0  0  0  0  0  0
   -1.0839   -1.7108   -0.3471 C   0  0  0  0  0  0  0  0  0  0  0  0
    0.2595   -1.8084    0.2821 C   0  0  0  0  0  0  0  0  0  0  0  0
    1.1795   -0.7991    0.1188 N   0  0  0  0  0  0  0  0  0  0  0  0
    1.7776   -0.5256   -1.1245 C   0  0  0  0  0  0  0  0  0  0  0  0
    2.5384    0.7989   -0.9026 C   0  0  2  0  0  0  0  0  0  0  0  0
    3.7405    0.5749   -0.2728 O   0  0  0  0  0  0  0  0  0  0  0  0
    1.5512    1.4528    0.0828 C   0  0  2  0  0  0  0  0  0  0  0  0
    2.1374    2.5270    0.6855 O   0  0  0  0  0  0  0  0  0  0  0  0
    1.3632    0.2510    1.0240 C   0  0  0  0  0  0  0  0  0  0  0  0
   -5.0327    0.5039    0.3112 H   0  0  0  0  0  0  0  0  0  0  0  0
   -3.9875    1.6694   -0.5575 H   0  0  0  0  0  0  0  0  0  0  0  0
   -3.5344    1.1526    1.0833 H   0  0  0  0  0  0  0  0  0  0  0  0
   -1.5318    0.0228    0.8327 H   0  0  0  0  0  0  0  0  0  0  0  0
   -1.0664   -1.7244   -1.4595 H   0  0  0  0  0  0  0  0  0  0  0  0
   -1.6423   -2.6489   -0.0466 H   0  0  0  0  0  0  0  0  0  0  0  0
    0.7292   -2.7996   -0.0054 H   0  0  0  0  0  0  0  0  0  0  0  0
    0.0745   -1.9507    1.3906 H   0  0  0  0  0  0  0  0  0  0  0  0
    2.5634   -1.3139   -1.2994 H   0  0  0  0  0  0  0  0  0  0  0  0
    1.1285   -0.3560   -1.9774 H   0  0  0  0  0  0  0  0  0  0  0  0
    2.6022    1.3938   -1.8195 H   0  0  0  0  0  0  0  0  0  0  0  0
    3.8845    1.1194    0.5346 H   0  0  0  0  0  0  0  0  0  0  0  0
    0.6192    1.6328   -0.4607 H   0  0  0  0  0  0  0  0  0  0  0  0
    1.4793    3.2622    0.8023 H   0  0  0  0  0  0  0  0  0  0  0  0
    0.5921    0.3960    1.7650 H   0  0  0  0  0  0  0  0  0  0  0  0
    2.3737    0.1006    1.5255 H   0  0  0  0  0  0  0  0  0  0  0  0
  1  2  1  0
  2  3  2  0
  2  4  1  0
  4  5  1  0
  5  6  1  0
  6  7  1  0
  7  8  1  0
  8  9  1  0
  9 10  1  0
  9 11  1  0
 11 12  1  0
 11 13  1  0
 13  7  1  0
  1 14  1  0
  1 15  1  0
  1 16  1  0
  4 17  1  0
  5 18  1  0
  5 19  1  0
  6 20  1  0
  6 21  1  0
  8 22  1  0
  8 23  1  0
  9 24  1  6
 10 25  1  0
 11 26  1  6
 12 27  1  0
 13 28  1  0
 13 29  1  0
M  END
$$$$

     RDKit          3D

 29 29  0  0  0  0  0  0  0  0999 V2000
    4.7446    0.0966   -0.5109 C   0  0  0  0  0  0  0  0  0  0  0  0
    3.2630   -0.1511   -0.4253 C   0  0  0  0  0  0  0  0  0  0  0  0
    2.5562   -0.0963   -1.4678 O   0  0  0  0  0  0  0  0  0  0  0  0
    2.7053   -0.4410    0.8370 N   0  0  0  0  0  0  0  0  0  0  0  0
    1.2739   -0.6863    0.9755 C   0  0  0  0  0  0  0  0  0  0  0  0
    0.4439    0.5018    0.5642 C   0  0  0  0  0  0  0  0  0  0  0  0
   -0.9517    0.1653    0.7328 N   0  0  0  0  0  0  0  0  0  0  0  0
   -1.8177    1.2949    0.4493 C   0  0  0  0  0  0  0  0  0  0  0  0
   -3.0414    0.7360   -0.2141 C   0  0  2  0  0  0  0  0  0  0  0  0
   -4.0303    0.4574    0.7234 O   0  0  0  0  0  0  0  0  0  0  0  0
   -2.5849   -0.5563   -0.8375 C   0  0  2  0  0  0  0  0  0  0  0  0
   -3.5894   -1.5217   -0.8018 O   0  0  0  0  0  0  0  0  0  0  0  0
   -1.3949   -0.9593   -0.0054 C   0  0  0  0  0  0  0  0  0  0  0  0
    4.9475    1.1841   -0.3393 H   0  0  0  0  0  0  0  0  0  0  0  0
    5.0557   -0.1606   -1.5598 H   0  0  0  0  0  0  0  0  0  0  0  0
    5.2655   -0.5612    0.2095 H   0  0  0  0  0  0  0  0  0  0  0  0
    3.3588   -0.4724    1.6776 H   0  0  0  0  0  0  0  0  0  0  0  0
    1.1075   -0.8929    2.0739 H   0  0  0  0  0  0  0  0  0  0  0  0
    0.9939   -1.6211    0.4612 H   0  0  0  0  0  0  0  0  0  0  0  0
    0.7324    1.3876    1.1808 H   0  0  0  0  0  0  0  0  0  0  0  0
    0.6837    0.7730   -0.4749 H   0  0  0  0  0  0  0  0  0  0  0  0
   -1.3497    2.0909   -0.1233 H   0  0  0  0  0  0  0  0  0  0  0  0
   -2.1075    1.7042    1.4611 H   0  0  0  0  0  0  0  0  0  0  0  0
   -3.4052    1.4330   -0.9998 H   0  0  0  0  0  0  0  0  0  0  0  0
   -3.8153    0.9313    1.5773 H   0  0  0  0  0  0  0  0  0  0  0  0
   -2.2165   -0.3647   -1.8682 H   0  0  0  0  0  0  0  0  0  0  0  0
   -4.4696   -1.0645   -0.8402 H   0  0  0  0  0  0  0  0  0  0  0  0
   -0.6406   -1.4610   -0.6448 H   0  0  0  0  0  0  0  0  0  0  0  0
   -1.7173   -1.7455    0.7385 H   0  0  0  0  0  0  0  0  0  0  0  0
  1  2  1  0
  2  3  2  0
  2  4  1  0
  4  5  1  0
  5  6  1  0
  6  7  1  0
  7  8  1  0
  8  9  1  0
  9 10  1  0
  9 11  1  0
 11 12  1  0
 11 13  1  0
 13  7  1  0
  1 14  1  0
  1 15  1  0
  1 16  1  0
  4 17  1  0
  5 18  1  0
  5 19  1  0
  6 20  1  0
  6 21  1  0
  8 22  1  0
  8 23  1  0
  9 24  1  6
 10 25  1  0
 11 26  1  6
 12 27  1  0
 13 28  1  0
 13 29  1  0
M  END
$$$$

     RDKit          3D

 29 29  0  0  0  0  0  0  0  0999 V2000
    3.4679    0.9228   -1.1979 C   0  0  0  0  0  0  0  0  0  0  0  0
    2.8453    0.2428   -0.0336 C   0  0  0  0  0  0  0  0  0  0  0  0
    3.0625    0.7196    1.1146 O   0  0  0  0  0  0  0  0  0  0  0  0
    2.0306   -0.8982   -0.1366 N   0  0  0  0  0  0  0  0  0  0  0  0
    1.4096   -1.5883    0.9649 C   0  0  0  0  0  0  0  0  0  0  0  0
    0.4744   -0.6143    1.6899 C   0  0  0  0  0  0  0  0  0  0  0  0
   -0.4858   -0.1760    0.8221 N   0  0  0  0  0  0  0  0  0  0  0  0
   -1.4892   -1.0230    0.3223 C   0  0  0  0  0  0  0  0  0  0  0  0
   -2.7200   -0.1041    0.4084 C   0  0  2  0  0  0  0  0  0  0  0  0
   -3.6375   -0.3715   -0.5811 O   0  0  0  0  0  0  0  0  0  0  0  0
   -2.1667    1.2982    0.3360 C   0  0  2  0  0  0  0  0  0  0  0  0
   -2.5710    1.9846   -0.8014 O   0  0  0  0  0  0  0  0  0  0  0  0
   -0.6512    1.1255    0.3856 C   0  0  0  0  0  0  0  0  0  0  0  0
    2.7186    1.1794   -1.9728 H   0  0  0  0  0  0  0  0  0  0  0  0
    3.9783    1.8596   -0.8980 H   0  0  0  0  0  0  0  0  0  0  0  0
    4.2465    0.2968   -1.6697 H   0  0  0  0  0  0  0  0  0  0  0  0
    1.8672   -1.2752   -1.1042 H   0  0  0  0  0  0  0  0  0  0  0  0
    2.1675   -1.9869    1.6703 H   0  0  0  0  0  0  0  0  0  0  0  0
    0.8365   -2.4527    0.5740 H   0  0  0  0  0  0  0  0  0  0  0  0
    0.0657   -1.2016    2.5654 H   0  0  0  0  0  0  0  0  0  0  0  0
    1.0422    0.2041    2.1464 H   0  0  0  0  0  0  0  0  0  0  0  0
   -1.3033   -1.1869   -0.7590 H   0  0  0  0  0  0  0  0  0  0  0  0
   -1.6533   -1.9788    0.8040 H   0  0  0  0  0  0  0  0  0  0  0  0
   -3.1438   -0.3036    1.4343 H   0  0  0  0  0  0  0  0  0  0  0  0
   -4.2066   -1.1472   -0.3890 H   0  0  0  0  0  0  0  0  0  0  0  0
   -2.4429    1.9256    1.2033 H   0  0  0  0  0  0  0  0  0  0  0  0
   -3.2422    1.4577   -1.3106 H   0  0  0  0  0  0  0  0  0  0  0  0
   -0.3367    1.1731   -0.7029 H   0  0  0  0  0  0  0  0  0  0  0  0
   -0.1629    1.9185    0.9486 H   0  0  0  0  0  0  0  0  0  0  0  0
  1  2  1  0
  2  3  2  0
  2  4  1  0
  4  5  1  0
  5  6  1  0
  6  7  1  0
  7  8  1  0
  8  9  1  0
  9 10  1  0
  9 11  1  0
 11 12  1  0
 11 13  1  0
 13  7  1  0
  1 14  1  0
  1 15  1  0
  1 16  1  0
  4 17  1  0
  5 18  1  0
  5 19  1  0
  6 20  1  0
  6 21  1  0
  8 22  1  0
  8 23  1  0
  9 24  1  1
 10 25  1  0
 11 26  1  1
 12 27  1  0
 13 28  1  0
 13 29  1  0
M  END
$$$$

     RDKit          3D

 29 29  0  0  0  0  0  0  0  0999 V2000
    4.7894   -0.6735    0.0883 C   0  0  0  0  0  0  0  0  0  0  0  0
    3.2863   -0.7324    0.0765 C   0  0  0  0  0  0  0  0  0  0  0  0
    2.6503   -1.4467    0.8681 O   0  0  0  0  0  0  0  0  0  0  0  0
    2.5602    0.0494   -0.8652 N   0  0  0  0  0  0  0  0  0  0  0  0
    1.1377    0.0764   -0.9747 C   0  0  0  0  0  0  0  0  0  0  0  0
    0.4648    0.5481    0.3163 C   0  0  0  0  0  0  0  0  0  0  0  0
   -0.9384    0.5469    0.0912 N   0  0  0  0  0  0  0  0  0  0  0  0
   -1.5458   -0.7413   -0.0731 C   0  0  0  0  0  0  0  0  0  0  0  0
   -2.9688   -0.6266    0.4339 C   0  0  2  0  0  0  0  0  0  0  0  0
   -3.8904   -1.0733   -0.5053 O   0  0  0  0  0  0  0  0  0  0  0  0
   -3.0917    0.8573    0.6882 C   0  0  2  0  0  0  0  0  0  0  0  0
   -3.2789    1.4973   -0.5286 O   0  0  0  0  0  0  0  0  0  0  0  0
   -1.6950    1.1621    1.1885 C   0  0  0  0  0  0  0  0  0  0  0  0
    5.1366   -0.6938    1.1303 H   0  0  0  0  0  0  0  0  0  0  0  0
    5.1748   -1.5042   -0.5048 H   0  0  0  0  0  0  0  0  0  0  0  0
    5.0872    0.2997   -0.3787 H   0  0  0  0  0  0  0  0  0  0  0  0
    3.1286    0.6349   -1.5085 H   0  0  0  0  0  0  0  0  0  0  0  0
    0.7518   -0.9467   -1.2139 H   0  0  0  0  0  0  0  0  0  0  0  0
    0.8341    0.7813   -1.7689 H   0  0  0  0  0  0  0  0  0  0  0  0
    0.7636    1.6117    0.4941 H   0  0  0  0  0  0  0  0  0  0  0  0
    0.7761   -0.0831    1.1602 H   0  0  0  0  0  0  0  0  0  0  0  0
   -0.9802   -1.5252    0.5077 H   0  0  0  0  0  0  0  0  0  0  0  0
   -1.5504   -0.9919   -1.1393 H   0  0  0  0  0  0  0  0  0  0  0  0
   -3.0769   -1.1426    1.4067 H   0  0  0  0  0  0  0  0  0  0  0  0
   -4.0005   -2.0330   -0.4120 H   0  0  0  0  0  0  0  0  0  0  0  0
   -3.8726    1.1014    1.4289 H   0  0  0  0  0  0  0  0  0  0  0  0
   -2.6026    2.2450   -0.6106 H   0  0  0  0  0  0  0  0  0  0  0  0
   -1.4871    2.2205    1.3037 H   0  0  0  0  0  0  0  0  0  0  0  0
   -1.5622    0.5821    2.1399 H   0  0  0  0  0  0  0  0  0  0  0  0
  1  2  1  0
  2  3  2  0
  2  4  1  0
  4  5  1  0
  5  6  1  0
  6  7  1  0
  7  8  1  0
  8  9  1  0
  9 10  1  0
  9 11  1  0
 11 12  1  0
 11 13  1  0
 13  7  1  0
  1 14  1  0
  1 15  1  0
  1 16  1  0
  4 17  1  0
  5 18  1  0
  5 19  1  0
  6 20  1  0
  6 21  1  0
  8 22  1  0
  8 23  1  0
  9 24  1  1
 10 25  1  0
 11 26  1  1
 12 27  1  0
 13 28  1  0
 13 29  1  0
M  END
$$$$

     RDKit          3D

 29 29  0  0  0  0  0  0  0  0999 V2000
    4.6594    0.2968    0.5792 C   0  0  0  0  0  0  0  0  0  0  0  0
    3.1911    0.0317    0.5783 C   0  0  0  0  0  0  0  0  0  0  0  0
    2.4699    0.5948    1.4310 O   0  0  0  0  0  0  0  0  0  0  0  0
    2.6477   -0.8489   -0.3847 N   0  0  0  0  0  0  0  0  0  0  0  0
    1.2372   -1.1380   -0.4325 C   0  0  0  0  0  0  0  0  0  0  0  0
    0.4553    0.1126   -0.6820 C   0  0  0  0  0  0  0  0  0  0  0  0
   -0.9648   -0.1862   -0.7342 N   0  0  0  0  0  0  0  0  0  0  0  0
   -1.7679    0.9736   -0.9710 C   0  0  0  0  0  0  0  0  0  0  0  0
   -3.0210    0.8380   -0.1313 C   0  0  2  0  0  0  0  0  0  0  0  0
   -2.9437    1.6559    1.0074 O   0  0  0  0  0  0  0  0  0  0  0  0
   -2.9113   -0.5931    0.3603 C   0  0  2  0  0  0  0  0  0  0  0  0
   -3.6375   -0.8138    1.5105 O   0  0  0  0  0  0  0  0  0  0  0  0
   -1.4127   -0.6739    0.5794 C   0  0  0  0  0  0  0  0  0  0  0  0
    4.8714    1.2031   -0.0390 H   0  0  0  0  0  0  0  0  0  0  0  0
    5.1547   -0.5590    0.1221 H   0  0  0  0  0  0  0  0  0  0  0  0
    4.9935    0.4806    1.6228 H   0  0  0  0  0  0  0  0  0  0  0  0
    3.3261   -1.2958   -1.0814 H   0  0  0  0  0  0  0  0  0  0  0  0
    1.0692   -1.9099   -1.2310 H   0  0  0  0  0  0  0  0  0  0  0  0
    0.9737   -1.6228    0.5244 H   0  0  0  0  0  0  0  0  0  0  0  0
    0.7119    0.5963   -1.6340 H   0  0  0  0  0  0  0  0  0  0  0  0
    0.5870    0.8246    0.1338 H   0  0  0  0  0  0  0  0  0  0  0  0
   -1.1820    1.8844   -0.7149 H   0  0  0  0  0  0  0  0  0  0  0  0
   -2.0536    1.0351   -2.0513 H   0  0  0  0  0  0  0  0  0  0  0  0
   -3.9452    1.0199   -0.7074 H   0  0  0  0  0  0  0  0  0  0  0  0
   -2.9051    2.6172    0.7754 H   0  0  0  0  0  0  0  0  0  0  0  0
   -3.1585   -1.3102   -0.4567 H   0  0  0  0  0  0  0  0  0  0  0  0
   -4.2337   -1.5942    1.3281 H   0  0  0  0  0  0  0  0  0  0  0  0
   -1.0633   -1.6827    0.7827 H   0  0  0  0  0  0  0  0  0  0  0  0
   -1.1478    0.0638    1.3811 H   0  0  0  0  0  0  0  0  0  0  0  0
  1  2  1  0
  2  3  2  0
  2  4  1  0
  4  5  1  0
  5  6  1  0
  6  7  1  0
  7  8  1  0
  8  9  1  0
  9 10  1  0
  9 11  1  0
 11 12  1  0
 11 13  1  0
 13  7  1  0
  1 14  1  0
  1 15  1  0
  1 16  1  0
  4 17  1  0
  5 18  1  0
  5 19  1  0
  6 20  1  0
  6 21  1  0
  8 22  1  0
  8 23  1  0
  9 24  1  6
 10 25  1  0
 11 26  1  6
 12 27  1  0
 13 28  1  0
 13 29  1  0
M  END
$$$$

     RDKit          3D

 29 29  0  0  0  0  0  0  0  0999 V2000
    4.8582   -0.2199    0.0942 C   0  0  0  0  0  0  0  0  0  0  0  0
    3.3866   -0.4621    0.1992 C   0  0  0  0  0  0  0  0  0  0  0  0
    2.9446   -1.5394   -0.2639 O   0  0  0  0  0  0  0  0  0  0  0  0
    2.5070    0.4700    0.7917 N   0  0  0  0  0  0  0  0  0  0  0  0
    1.0746    0.3023    0.9078 C   0  0  0  0  0  0  0  0  0  0  0  0
    0.5033    0.2150   -0.4808 C   0  0  0  0  0  0  0  0  0  0  0  0
   -0.8544    0.0441   -0.6260 N   0  0  0  0  0  0  0  0  0  0  0  0
   -1.5118   -1.1247   -0.2696 C   0  0  0  0  0  0  0  0  0  0  0  0
   -2.7058   -0.6277    0.5423 C   0  0  2  0  0  0  0  0  0  0  0  0
   -3.7856   -1.4905    0.3801 O   0  0  0  0  0  0  0  0  0  0  0  0
   -2.9687    0.7389   -0.0669 C   0  0  2  0  0  0  0  0  0  0  0  0
   -4.0970    0.6726   -0.8740 O   0  0  0  0  0  0  0  0  0  0  0  0
   -1.7185    1.1046   -0.8626 C   0  0  0  0  0  0  0  0  0  0  0  0
    5.2404   -0.8576   -0.7522 H   0  0  0  0  0  0  0  0  0  0  0  0
    5.0932    0.8315   -0.1734 H   0  0  0  0  0  0  0  0  0  0  0  0
    5.4054   -0.5054    1.0114 H   0  0  0  0  0  0  0  0  0  0  0  0
    2.9457    1.3453    1.1691 H   0  0  0  0  0  0  0  0  0  0  0  0
    0.8690   -0.6477    1.4843 H   0  0  0  0  0  0  0  0  0  0  0  0
    0.6684    1.1787    1.4755 H   0  0  0  0  0  0  0  0  0  0  0  0
    0.8112    1.1611   -0.9912 H   0  0  0  0  0  0  0  0  0  0  0  0
    1.0441   -0.5824   -1.0278 H   0  0  0  0  0  0  0  0  0  0  0  0
   -0.9323   -1.8958    0.2198 H   0  0  0  0  0  0  0  0  0  0  0  0
   -1.9786   -1.5532   -1.2087 H   0  0  0  0  0  0  0  0  0  0  0  0
   -2.3605   -0.5626    1.5839 H   0  0  0  0  0  0  0  0  0  0  0  0
   -3.9795   -1.9543    1.2198 H   0  0  0  0  0  0  0  0  0  0  0  0
   -3.0906    1.4752    0.7707 H   0  0  0  0  0  0  0  0  0  0  0  0
   -3.9711    1.2865   -1.6573 H   0  0  0  0  0  0  0  0  0  0  0  0
   -2.0298    1.0817   -1.9496 H   0  0  0  0  0  0  0  0  0  0  0  0
   -1.3677    2.1158   -0.6459 H   0  0  0  0  0  0  0  0  0  0  0  0
  1  2  1  0
  2  3  2  0
  2  4  1  0
  4  5  1  0
  5  6  1  0
  6  7  1  0
  7  8  1  0
  8  9  1  0
  9 10  1  0
  9 11  1  0
 11 12  1  0
 11 13  1  0
 13  7  1  0
  1 14  1  0
  1 15  1  0
  1 16  1  0
  4 17  1  0
  5 18  1  0
  5 19  1  0
  6 20  1  0
  6 21  1  0
  8 22  1  0
  8 23  1  0
  9 24  1  1
 10 25  1  0
 11 26  1  1
 12 27  1  0
 13 28  1  0
 13 29  1  0
M  END
$$$$

     RDKit          3D

 29 29  0  0  0  0  0  0  0  0999 V2000
    5.0310    0.0606    0.3554 C   0  0  0  0  0  0  0  0  0  0  0  0
    3.7293   -0.6535    0.2344 C   0  0  0  0  0  0  0  0  0  0  0  0
    3.6269   -1.8800    0.4025 O   0  0  0  0  0  0  0  0  0  0  0  0
    2.5602    0.0885   -0.0843 N   0  0  0  0  0  0  0  0  0  0  0  0
    1.2615   -0.5883   -0.2105 C   0  0  0  0  0  0  0  0  0  0  0  0
    0.2442    0.4521   -0.5478 C   0  0  0  0  0  0  0  0  0  0  0  0
   -1.0737   -0.1297   -0.6917 N   0  0  0  0  0  0  0  0  0  0  0  0
   -2.0782    0.8283   -1.0143 C   0  0  0  0  0  0  0  0  0  0  0  0
   -3.3469    0.4202   -0.3096 C   0  0  2  0  0  0  0  0  0  0  0  0
   -3.9794    1.5131    0.3048 O   0  0  0  0  0  0  0  0  0  0  0  0
   -2.9361   -0.5942    0.7118 C   0  0  2  0  0  0  0  0  0  0  0  0
   -3.0683   -0.1090    2.0149 O   0  0  0  0  0  0  0  0  0  0  0  0
   -1.5001   -0.8891    0.4354 C   0  0  0  0  0  0  0  0  0  0  0  0
    5.8810   -0.6422    0.3479 H   0  0  0  0  0  0  0  0  0  0  0  0
    5.0986    0.7983   -0.4799 H   0  0  0  0  0  0  0  0  0  0  0  0
    5.0334    0.6473    1.2943 H   0  0  0  0  0  0  0  0  0  0  0  0
    2.6656    1.1170   -0.2219 H   0  0  0  0  0  0  0  0  0  0  0  0
    1.3904   -1.3325   -1.0213 H   0  0  0  0  0  0  0  0  0  0  0  0
    1.0332   -1.1157    0.7286 H   0  0  0  0  0  0  0  0  0  0  0  0
    0.5126    0.8519   -1.5663 H   0  0  0  0  0  0  0  0  0  0  0  0
    0.2842    1.2773    0.1651 H   0  0  0  0  0  0  0  0  0  0  0  0
   -1.7742    1.8336   -0.6961 H   0  0  0  0  0  0  0  0  0  0  0  0
   -2.2185    0.8208   -2.1300 H   0  0  0  0  0  0  0  0  0  0  0  0
   -4.0321   -0.0032   -1.0741 H   0  0  0  0  0  0  0  0  0  0  0  0
   -3.3795    2.2996    0.1595 H   0  0  0  0  0  0  0  0  0  0  0  0
   -3.5849   -1.4989    0.6121 H   0  0  0  0  0  0  0  0  0  0  0  0
   -3.0773   -0.8646    2.6390 H   0  0  0  0  0  0  0  0  0  0  0  0
   -1.4286   -1.9830    0.1649 H   0  0  0  0  0  0  0  0  0  0  0  0
   -0.8742   -0.7248    1.3381 H   0  0  0  0  0  0  0  0  0  0  0  0
  1  2  1  0
  2  3  2  0
  2  4  1  0
  4  5  1  0
  5  6  1  0
  6  7  1  0
  7  8  1  0
  8  9  1  0
  9 10  1  0
  9 11  1  0
 11 12  1  0
 11 13  1  0
 13  7  1  0
  1 14  1  0
  1 15  1  0
  1 16  1  0
  4 17  1  0
  5 18  1  0
  5 19  1  0
  6 20  1  0
  6 21  1  0
  8 22  1  0
  8 23  1  0
  9 24  1  6
 10 25  1  0
 11 26  1  1
 12 27  1  0
 13 28  1  0
 13 29  1  0
M  END
$$$$

     RDKit          3D

 29 29  0  0  0  0  0  0  0  0999 V2000
    4.8564   -0.1308   -0.4079 C   0  0  0  0  0  0  0  0  0  0  0  0
    3.4491    0.1298    0.0381 C   0  0  0  0  0  0  0  0  0  0  0  0
    3.0827    1.3199    0.2681 O   0  0  0  0  0  0  0  0  0  0  0  0
    2.5765   -0.9804    0.1858 N   0  0  0  0  0  0  0  0  0  0  0  0
    1.2241   -0.8120    0.6063 C   0  0  0  0  0  0  0  0  0  0  0  0
    0.4146    0.0713   -0.3528 C   0  0  0  0  0  0  0  0  0  0  0  0
   -0.8930    0.1719    0.1555 N   0  0  0  0  0  0  0  0  0  0  0  0
   -1.7267   -0.9618    0.1561 C   0  0  0  0  0  0  0  0  0  0  0  0
   -3.1208   -0.4679   -0.1705 C   0  0  2  0  0  0  0  0  0  0  0  0
   -3.3278   -0.4498   -1.5468 O   0  0  0  0  0  0  0  0  0  0  0  0
   -3.0545    0.9482    0.3478 C   0  0  2  0  0  0  0  0  0  0  0  0
   -4.0169    1.7875   -0.1814 O   0  0  0  0  0  0  0  0  0  0  0  0
   -1.6471    1.3430   -0.1079 C   0  0  0  0  0  0  0  0  0  0  0  0
    4.9179    0.0094   -1.4971 H   0  0  0  0  0  0  0  0  0  0  0  0
    5.5292    0.5832    0.1219 H   0  0  0  0  0  0  0  0  0  0  0  0
    5.1588   -1.1767   -0.1781 H   0  0  0  0  0  0  0  0  0  0  0  0
    2.9538   -1.9262   -0.0212 H   0  0  0  0  0  0  0  0  0  0  0  0
    0.6914   -1.7687    0.7078 H   0  0  0  0  0  0  0  0  0  0  0  0
    1.2194   -0.3455    1.6342 H   0  0  0  0  0  0  0  0  0  0  0  0
    0.8638    1.0985   -0.3852 H   0  0  0  0  0  0  0  0  0  0  0  0
    0.5153   -0.3162   -1.3887 H   0  0  0  0  0  0  0  0  0  0  0  0
   -1.4184   -1.7795   -0.5255 H   0  0  0  0  0  0  0  0  0  0  0  0
   -1.7385   -1.3851    1.1969 H   0  0  0  0  0  0  0  0  0  0  0  0
   -3.9100   -1.0635    0.3365 H   0  0  0  0  0  0  0  0  0  0  0  0
   -3.0560   -1.2657   -1.9936 H   0  0  0  0  0  0  0  0  0  0  0  0
   -3.0130    0.9262    1.4441 H   0  0  0  0  0  0  0  0  0  0  0  0
   -3.5674    2.6864   -0.2716 H   0  0  0  0  0  0  0  0  0  0  0  0
   -1.7024    1.5767   -1.1935 H   0  0  0  0  0  0  0  0  0  0  0  0
   -1.2606    2.1776    0.5002 H   0  0  0  0  0  0  0  0  0  0  0  0
  1  2  1  0
  2  3  2  0
  2  4  1  0
  4  5  1  0
  5  6  1  0
  6  7  1  0
  7  8  1  0
  8  9  1  0
  9 10  1  0
  9 11  1  0
 11 12  1  0
 11 13  1  0
 13  7  1  0
  1 14  1  0
  1 15  1  0
  1 16  1  0
  4 17  1  0
  5 18  1  0
  5 19  1  0
  6 20  1  0
  6 21  1  0
  8 22  1  0
  8 23  1  0
  9 24  1  1
 10 25  1  0
 11 26  1  1
 12 27  1  0
 13 28  1  0
 13 29  1  0
M  END
$$$$
