
     RDKit          3D

 24 24  0  0  0  0  0  0  0  0999 V2000
    3.2261    0.8073    0.5613 N   0  0  0  0  0  0  0  0  0  0  0  0
    2.3695   -0.1418    0.3373 C   0  0  0  0  0  0  0  0  0  0  0  0
    2.6854   -1.4823    0.6803 N   0  0  0  0  0  0  0  0  0  0  0  0
    1.0592    0.1542   -0.2746 C   0  0  1  0  0  0  0  0  0  0  0  0
   -0.0778   -0.2550    0.6553 C   0  0  0  0  0  0  0  0  0  0  0  0
   -1.3070    0.1543    0.0381 N   0  0  0  0  0  0  0  0  0  0  0  0
   -2.4591   -0.6556    0.2130 C   0  0  0  0  0  0  0  0  0  0  0  0
   -2.4198   -1.8428    0.9738 N   0  0  0  0  0  0  0  0  0  0  0  0
   -3.5409   -0.3002   -0.3271 O   0  0  0  0  0  0  0  0  0  0  0  0
   -1.3653    1.3627   -0.7416 C   0  0  0  0  0  0  0  0  0  0  0  0
   -0.0834    1.6778   -1.4566 C   0  0  0  0  0  0  0  0  0  0  0  0
    1.0101    1.4880   -0.6150 O   0  0  0  0  0  0  0  0  0  0  0  0
    3.0505    1.7935    0.3335 H   0  0  0  0  0  0  0  0  0  0  0  0
    3.5281   -1.9202    0.2662 H   0  0  0  0  0  0  0  0  0  0  0  0
    2.0540   -1.9796    1.3402 H   0  0  0  0  0  0  0  0  0  0  0  0
    0.9253   -0.4568   -1.1958 H   0  0  0  0  0  0  0  0  0  0  0  0
    0.0052   -1.3644    0.7541 H   0  0  0  0  0  0  0  0  0  0  0  0
    0.0518    0.1900    1.6511 H   0  0  0  0  0  0  0  0  0  0  0  0
   -1.7244   -1.9589    1.7377 H   0  0  0  0  0  0  0  0  0  0  0  0
   -3.0904   -2.5947    0.7623 H   0  0  0  0  0  0  0  0  0  0  0  0
   -2.1809    1.2882   -1.4925 H   0  0  0  0  0  0  0  0  0  0  0  0
   -1.6439    2.2330   -0.0865 H   0  0  0  0  0  0  0  0  0  0  0  0
    0.0234    1.0614   -2.3684 H   0  0  0  0  0  0  0  0  0  0  0  0
   -0.0960    2.7420   -1.7461 H   0  0  0  0  0  0  0  0  0  0  0  0
  1  2  2  3
  2  3  1  0
  2  4  1  0
  4  5  1  0
  5  6  1  0
  6  7  1  0
  7  8  1  0
  7  9  2  0
  6 10  1  0
 10 11  1  0
 11 12  1  0
 12  4  1  0
  1 13  1  0
  3 14  1  0
  3 15  1  0
  4 16  1  6
  5 17  1  0
  5 18  1  0
  8 19  1  0
  8 20  1  0
 10 21  1  0
 10 22  1  0
 11 23  1  0
 11 24  1  0
M  END
$$$$

     RDKit          3D

 24 24  0  0  0  0  0  0  0  0999 V2000
   -2.9171    0.1829   -1.5770 N   0  0  0  0  0  0  0  0  0  0  0  0
   -2.4908    0.0030   -0.3763 C   0  0  0  0  0  0  0  0  0  0  0  0
   -3.4611   -0.1573    0.6513 N   0  0  0  0  0  0  0  0  0  0  0  0
   -1.0877   -0.0512    0.0260 C   0  0  1  0  0  0  0  0  0  0  0  0
   -0.1071    0.1230   -1.0888 C   0  0  0  0  0  0  0  0  0  0  0  0
    1.2335    0.1182   -0.4732 N   0  0  0  0  0  0  0  0  0  0  0  0
    2.3361   -0.4303   -1.1609 C   0  0  0  0  0  0  0  0  0  0  0  0
    3.6104   -0.4268   -0.5579 N   0  0  0  0  0  0  0  0  0  0  0  0
    2.1842   -0.9152   -2.2954 O   0  0  0  0  0  0  0  0  0  0  0  0
    1.4444    0.6745    0.8452 C   0  0  0  0  0  0  0  0  0  0  0  0
    0.2250    0.5910    1.7193 C   0  0  0  0  0  0  0  0  0  0  0  0
   -0.8696    0.9797    0.9479 O   0  0  0  0  0  0  0  0  0  0  0  0
   -3.9138    0.2135   -1.8103 H   0  0  0  0  0  0  0  0  0  0  0  0
   -3.4647    0.5468    1.4298 H   0  0  0  0  0  0  0  0  0  0  0  0
   -4.1054   -0.9551    0.5735 H   0  0  0  0  0  0  0  0  0  0  0  0
   -0.9000   -1.0387    0.4950 H   0  0  0  0  0  0  0  0  0  0  0  0
   -0.2154    1.0511   -1.6530 H   0  0  0  0  0  0  0  0  0  0  0  0
   -0.1104   -0.7131   -1.8160 H   0  0  0  0  0  0  0  0  0  0  0  0
    3.8092   -0.8077    0.4033 H   0  0  0  0  0  0  0  0  0  0  0  0
    4.4283   -0.0184   -1.0942 H   0  0  0  0  0  0  0  0  0  0  0  0
    1.7377    1.7381    0.7396 H   0  0  0  0  0  0  0  0  0  0  0  0
    2.2714    0.1732    1.3861 H   0  0  0  0  0  0  0  0  0  0  0  0
    0.0647   -0.4243    2.1331 H   0  0  0  0  0  0  0  0  0  0  0  0
    0.2983    1.3007    2.5529 H   0  0  0  0  0  0  0  0  0  0  0  0
  1  2  2  3
  2  3  1  0
  2  4  1  0
  4  5  1  0
  5  6  1  0
  6  7  1  0
  7  8  1  0
  7  9  2  0
  6 10  1  0
 10 11  1  0
 11 12  1  0
 12  4  1  0
  1 13  1  0
  3 14  1  0
  3 15  1  0
  4 16  1  1
  5 17  1  0
  5 18  1  0
  8 19  1  0
  8 20  1  0
 10 21  1  0
 10 22  1  0
 11 23  1  0
 11 24  1  0
M  END
$$$$

     RDKit          3D

 24 24  0  0  0  0  0  0  0  0999 V2000
   -2.0399    0.9749    1.5449 N   0  0  0  0  0  0  0  0  0  0  0  0
   -2.1828    0.5181    0.3540 C   0  0  0  0  0  0  0  0  0  0  0  0
   -3.4886    0.3108   -0.1436 N   0  0  0  0  0  0  0  0  0  0  0  0
   -0.9844    0.2096   -0.4947 C   0  0  1  0  0  0  0  0  0  0  0  0
    0.2366    0.5255    0.2897 C   0  0  0  0  0  0  0  0  0  0  0  0
    1.4223   -0.1372   -0.1967 N   0  0  0  0  0  0  0  0  0  0  0  0
    2.7183    0.3390    0.0700 C   0  0  0  0  0  0  0  0  0  0  0  0
    2.9117    1.5220    0.8493 N   0  0  0  0  0  0  0  0  0  0  0  0
    3.7316   -0.2612   -0.3682 O   0  0  0  0  0  0  0  0  0  0  0  0
    1.2439   -1.3325   -0.9849 C   0  0  0  0  0  0  0  0  0  0  0  0
   -0.0970   -1.9301   -0.5488 C   0  0  0  0  0  0  0  0  0  0  0  0
   -1.0949   -1.0776   -0.9321 O   0  0  0  0  0  0  0  0  0  0  0  0
   -2.8729    1.1816    2.1146 H   0  0  0  0  0  0  0  0  0  0  0  0
   -4.2606    0.9121    0.1977 H   0  0  0  0  0  0  0  0  0  0  0  0
   -3.6757   -0.4261   -0.8359 H   0  0  0  0  0  0  0  0  0  0  0  0
   -1.0232    0.8819   -1.3782 H   0  0  0  0  0  0  0  0  0  0  0  0
    0.0567    0.3268    1.3692 H   0  0  0  0  0  0  0  0  0  0  0  0
    0.4294    1.6304    0.1914 H   0  0  0  0  0  0  0  0  0  0  0  0
    3.7822    1.6224    1.4300 H   0  0  0  0  0  0  0  0  0  0  0  0
    2.2308    2.3074    0.8791 H   0  0  0  0  0  0  0  0  0  0  0  0
    1.1813   -1.0444   -2.0581 H   0  0  0  0  0  0  0  0  0  0  0  0
    2.0667   -2.0621   -0.8660 H   0  0  0  0  0  0  0  0  0  0  0  0
   -0.2493   -2.9042   -1.0443 H   0  0  0  0  0  0  0  0  0  0  0  0
   -0.0423   -2.0873    0.5616 H   0  0  0  0  0  0  0  0  0  0  0  0
  1  2  2  3
  2  3  1  0
  2  4  1  0
  4  5  1  0
  5  6  1  0
  6  7  1  0
  7  8  1  0
  7  9  2  0
  6 10  1  0
 10 11  1  0
 11 12  1  0
 12  4  1  0
  1 13  1  0
  3 14  1  0
  3 15  1  0
  4 16  1  6
  5 17  1  0
  5 18  1  0
  8 19  1  0
  8 20  1  0
 10 21  1  0
 10 22  1  0
 11 23  1  0
 11 24  1  0
M  END
$$$$

     RDKit          3D

 24 24  0  0  0  0  0  0  0  0999 V2000
    3.2496   -0.7678   -0.4005 N   0  0  0  0  0  0  0  0  0  0  0  0
    2.3648    0.0378    0.0425 C   0  0  0  0  0  0  0  0  0  0  0  0
    2.6937    1.4020    0.2674 N   0  0  0  0  0  0  0  0  0  0  0  0
    0.9741   -0.3855    0.3431 C   0  0  1  0  0  0  0  0  0  0  0  0
    0.0562    0.4376   -0.5374 C   0  0  0  0  0  0  0  0  0  0  0  0
   -1.2944   -0.0148   -0.2969 N   0  0  0  0  0  0  0  0  0  0  0  0
   -2.2809    0.9244    0.0510 C   0  0  0  0  0  0  0  0  0  0  0  0
   -1.9702    2.3036    0.1687 N   0  0  0  0  0  0  0  0  0  0  0  0
   -3.4771    0.5927    0.2733 O   0  0  0  0  0  0  0  0  0  0  0  0
   -1.5466   -1.4315   -0.4328 C   0  0  0  0  0  0  0  0  0  0  0  0
   -0.4743   -2.1339    0.4075 C   0  0  0  0  0  0  0  0  0  0  0  0
    0.7724   -1.7283   -0.0239 O   0  0  0  0  0  0  0  0  0  0  0  0
    3.0307   -1.7768   -0.5739 H   0  0  0  0  0  0  0  0  0  0  0  0
    3.5228    1.7210    0.8138 H   0  0  0  0  0  0  0  0  0  0  0  0
    2.0840    2.1496   -0.1281 H   0  0  0  0  0  0  0  0  0  0  0  0
    0.7072   -0.2318    1.3950 H   0  0  0  0  0  0  0  0  0  0  0  0
    0.2973    0.1659   -1.6032 H   0  0  0  0  0  0  0  0  0  0  0  0
    0.1565    1.5243   -0.3652 H   0  0  0  0  0  0  0  0  0  0  0  0
   -1.9048    2.9042   -0.6816 H   0  0  0  0  0  0  0  0  0  0  0  0
   -1.8104    2.6979    1.1189 H   0  0  0  0  0  0  0  0  0  0  0  0
   -1.3630   -1.6753   -1.5137 H   0  0  0  0  0  0  0  0  0  0  0  0
   -2.5464   -1.7371   -0.1070 H   0  0  0  0  0  0  0  0  0  0  0  0
   -0.6460   -1.7554    1.4558 H   0  0  0  0  0  0  0  0  0  0  0  0
   -0.5951   -3.2229    0.3270 H   0  0  0  0  0  0  0  0  0  0  0  0
  1  2  2  3
  2  3  1  0
  2  4  1  0
  4  5  1  0
  5  6  1  0
  6  7  1  0
  7  8  1  0
  7  9  2  0
  6 10  1  0
 10 11  1  0
 11 12  1  0
 12  4  1  0
  1 13  1  0
  3 14  1  0
  3 15  1  0
  4 16  1  1
  5 17  1  0
  5 18  1  0
  8 19  1  0
  8 20  1  0
 10 21  1  0
 10 22  1  0
 11 23  1  0
 11 24  1  0
M  END
$$$$

     RDKit          3D

 24 24  0  0  0  0  0  0  0  0999 V2000
    2.6796    1.7276    0.8153 N   0  0  0  0  0  0  0  0  0  0  0  0
    2.5565    0.4959    0.5124 C   0  0  0  0  0  0  0  0  0  0  0  0
    3.6783   -0.3416    0.3092 N   0  0  0  0  0  0  0  0  0  0  0  0
    1.2184   -0.1155    0.3611 C   0  0  1  0  0  0  0  0  0  0  0  0
    0.0869    0.8698    0.5683 C   0  0  0  0  0  0  0  0  0  0  0  0
   -1.1847    0.3195    0.1825 N   0  0  0  0  0  0  0  0  0  0  0  0
   -2.3620    0.8177    0.7748 C   0  0  0  0  0  0  0  0  0  0  0  0
   -3.6579    0.3326    0.4530 N   0  0  0  0  0  0  0  0  0  0  0  0
   -2.3274    1.7486    1.6484 O   0  0  0  0  0  0  0  0  0  0  0  0
   -1.2589   -0.7279   -0.7966 C   0  0  0  0  0  0  0  0  0  0  0  0
   -0.0714   -1.6248   -0.6635 C   0  0  0  0  0  0  0  0  0  0  0  0
    1.0817   -0.8449   -0.7936 O   0  0  0  0  0  0  0  0  0  0  0  0
    1.8756    2.3615    0.9693 H   0  0  0  0  0  0  0  0  0  0  0  0
    3.8605   -0.8568   -0.5923 H   0  0  0  0  0  0  0  0  0  0  0  0
    4.3485   -0.4397    1.1093 H   0  0  0  0  0  0  0  0  0  0  0  0
    1.1255   -0.8518    1.2127 H   0  0  0  0  0  0  0  0  0  0  0  0
    0.0135    1.2023    1.6213 H   0  0  0  0  0  0  0  0  0  0  0  0
    0.2422    1.7686   -0.0730 H   0  0  0  0  0  0  0  0  0  0  0  0
   -4.1139    0.7137   -0.4021 H   0  0  0  0  0  0  0  0  0  0  0  0
   -4.1099   -0.3659    1.0524 H   0  0  0  0  0  0  0  0  0  0  0  0
   -2.1660   -1.3374   -0.6101 H   0  0  0  0  0  0  0  0  0  0  0  0
   -1.3347   -0.3441   -1.8320 H   0  0  0  0  0  0  0  0  0  0  0  0
   -0.1075   -2.0588    0.3770 H   0  0  0  0  0  0  0  0  0  0  0  0
   -0.0730   -2.4485   -1.4018 H   0  0  0  0  0  0  0  0  0  0  0  0
  1  2  2  3
  2  3  1  0
  2  4  1  0
  4  5  1  0
  5  6  1  0
  6  7  1  0
  7  8  1  0
  7  9  2  0
  6 10  1  0
 10 11  1  0
 11 12  1  0
 12  4  1  0
  1 13  1  0
  3 14  1  0
  3 15  1  0
  4 16  1  1
  5 17  1  0
  5 18  1  0
  8 19  1  0
  8 20  1  0
 10 21  1  0
 10 22  1  0
 11 23  1  0
 11 24  1  0
M  END
$$$$

     RDKit          3D

 24 24  0  0  0  0  0  0  0  0999 V2000
    1.9455   -2.1011    0.5294 N   0  0  0  0  0  0  0  0  0  0  0  0
    2.0776   -1.1269   -0.3038 C   0  0  0  0  0  0  0  0  0  0  0  0
    3.2756   -0.9538   -1.0514 N   0  0  0  0  0  0  0  0  0  0  0  0
    0.9891   -0.1372   -0.5259 C   0  0  1  0  0  0  0  0  0  0  0  0
   -0.1805   -0.4983    0.3545 C   0  0  0  0  0  0  0  0  0  0  0  0
   -1.2799    0.4233    0.1816 N   0  0  0  0  0  0  0  0  0  0  0  0
   -2.6390    0.0440    0.3047 C   0  0  0  0  0  0  0  0  0  0  0  0
   -2.9278   -1.3089    0.6129 N   0  0  0  0  0  0  0  0  0  0  0  0
   -3.5325    0.8923    0.1423 O   0  0  0  0  0  0  0  0  0  0  0  0
   -0.9194    1.8010   -0.1340 C   0  0  0  0  0  0  0  0  0  0  0  0
    0.5461    2.0517    0.1195 C   0  0  0  0  0  0  0  0  0  0  0  0
    1.3824    1.1528   -0.4476 O   0  0  0  0  0  0  0  0  0  0  0  0
    1.0732   -2.2364    1.0810 H   0  0  0  0  0  0  0  0  0  0  0  0
    3.3734   -1.4145   -1.9769 H   0  0  0  0  0  0  0  0  0  0  0  0
    4.0162   -0.3618   -0.6307 H   0  0  0  0  0  0  0  0  0  0  0  0
    0.6376   -0.3243   -1.5851 H   0  0  0  0  0  0  0  0  0  0  0  0
   -0.5773   -1.5090    0.1324 H   0  0  0  0  0  0  0  0  0  0  0  0
    0.0919   -0.4839    1.4272 H   0  0  0  0  0  0  0  0  0  0  0  0
   -2.8825   -1.6306    1.6035 H   0  0  0  0  0  0  0  0  0  0  0  0
   -3.1841   -1.9863   -0.1308 H   0  0  0  0  0  0  0  0  0  0  0  0
   -1.2188    2.0389   -1.1746 H   0  0  0  0  0  0  0  0  0  0  0  0
   -1.5261    2.4446    0.5330 H   0  0  0  0  0  0  0  0  0  0  0  0
    0.6880    2.1665    1.2341 H   0  0  0  0  0  0  0  0  0  0  0  0
    0.7712    3.0579   -0.2951 H   0  0  0  0  0  0  0  0  0  0  0  0
  1  2  2  3
  2  3  1  0
  2  4  1  0
  4  5  1  0
  5  6  1  0
  6  7  1  0
  7  8  1  0
  7  9  2  0
  6 10  1  0
 10 11  1  0
 11 12  1  0
 12  4  1  0
  1 13  1  0
  3 14  1  0
  3 15  1  0
  4 16  1  6
  5 17  1  0
  5 18  1  0
  8 19  1  0
  8 20  1  0
 10 21  1  0
 10 22  1  0
 11 23  1  0
 11 24  1  0
M  END
$$$$

     RDKit          3D

 24 24  0  0  0  0  0  0  0  0999 V2000
    3.3036   -0.6716   -0.4470 N   0  0  0  0  0  0  0  0  0  0  0  0
    2.5877   -0.0904    0.4511 C   0  0  0  0  0  0  0  0  0  0  0  0
    3.2678    0.8014    1.3245 N   0  0  0  0  0  0  0  0  0  0  0  0
    1.1525   -0.3697    0.5232 C   0  0  1  0  0  0  0  0  0  0  0  0
    0.3069    0.8689    0.3223 C   0  0  0  0  0  0  0  0  0  0  0  0
   -1.0838    0.4785    0.0791 N   0  0  0  0  0  0  0  0  0  0  0  0
   -2.1402    1.3258    0.4778 C   0  0  0  0  0  0  0  0  0  0  0  0
   -3.4798    0.9525    0.2449 N   0  0  0  0  0  0  0  0  0  0  0  0
   -1.8978    2.4156    1.0415 O   0  0  0  0  0  0  0  0  0  0  0  0
   -1.4054   -0.7762   -0.5713 C   0  0  0  0  0  0  0  0  0  0  0  0
   -0.4497   -1.8290   -0.0300 C   0  0  0  0  0  0  0  0  0  0  0  0
    0.8422   -1.3785   -0.3834 O   0  0  0  0  0  0  0  0  0  0  0  0
    2.9309   -1.3426   -1.1436 H   0  0  0  0  0  0  0  0  0  0  0  0
    3.8827    1.5215    0.8745 H   0  0  0  0  0  0  0  0  0  0  0  0
    3.1296    0.7036    2.3472 H   0  0  0  0  0  0  0  0  0  0  0  0
    0.9482   -0.7834    1.5388 H   0  0  0  0  0  0  0  0  0  0  0  0
    0.3633    1.4563    1.2589 H   0  0  0  0  0  0  0  0  0  0  0  0
    0.6558    1.4639   -0.5379 H   0  0  0  0  0  0  0  0  0  0  0  0
   -3.8471    0.6932   -0.7101 H   0  0  0  0  0  0  0  0  0  0  0  0
   -4.1791    0.9152    1.0187 H   0  0  0  0  0  0  0  0  0  0  0  0
   -2.4367   -1.0711   -0.3618 H   0  0  0  0  0  0  0  0  0  0  0  0
   -1.2569   -0.6946   -1.6730 H   0  0  0  0  0  0  0  0  0  0  0  0
   -0.5325   -1.7589    1.0904 H   0  0  0  0  0  0  0  0  0  0  0  0
   -0.6621   -2.8303   -0.4132 H   0  0  0  0  0  0  0  0  0  0  0  0
  1  2  2  3
  2  3  1  0
  2  4  1  0
  4  5  1  0
  5  6  1  0
  6  7  1  0
  7  8  1  0
  7  9  2  0
  6 10  1  0
 10 11  1  0
 11 12  1  0
 12  4  1  0
  1 13  1  0
  3 14  1  0
  3 15  1  0
  4 16  1  1
  5 17  1  0
  5 18  1  0
  8 19  1  0
  8 20  1  0
 10 21  1  0
 10 22  1  0
 11 23  1  0
 11 24  1  0
M  END
$$$$

     RDKit          3D

 24 24  0  0  0  0  0  0  0  0999 V2000
   -2.5892   -0.8868    1.4601 N   0  0  0  0  0  0  0  0  0  0  0  0
   -2.3457   -0.0926    0.4899 C   0  0  0  0  0  0  0  0  0  0  0  0
   -3.1558    1.0543    0.2635 N   0  0  0  0  0  0  0  0  0  0  0  0
   -1.2140   -0.3209   -0.4462 C   0  0  1  0  0  0  0  0  0  0  0  0
   -0.2823    0.8519   -0.3851 C   0  0  0  0  0  0  0  0  0  0  0  0
    1.0985    0.3931   -0.3119 N   0  0  0  0  0  0  0  0  0  0  0  0
    2.0637    1.1378    0.4089 C   0  0  0  0  0  0  0  0  0  0  0  0
    3.3983    0.6576    0.4566 N   0  0  0  0  0  0  0  0  0  0  0  0
    1.7068    2.1985    0.9820 O   0  0  0  0  0  0  0  0  0  0  0  0
    1.5085   -0.8429   -0.9812 C   0  0  0  0  0  0  0  0  0  0  0  0
    0.4047   -1.8529   -0.9787 C   0  0  0  0  0  0  0  0  0  0  0  0
   -0.5404   -1.4689   -0.0378 O   0  0  0  0  0  0  0  0  0  0  0  0
   -3.3885   -0.6965    2.0950 H   0  0  0  0  0  0  0  0  0  0  0  0
   -4.0795    0.9838   -0.2147 H   0  0  0  0  0  0  0  0  0  0  0  0
   -2.8013    1.9797    0.5903 H   0  0  0  0  0  0  0  0  0  0  0  0
   -1.6298   -0.4638   -1.4746 H   0  0  0  0  0  0  0  0  0  0  0  0
   -0.3619    1.5114   -1.2892 H   0  0  0  0  0  0  0  0  0  0  0  0
   -0.4663    1.4939    0.5119 H   0  0  0  0  0  0  0  0  0  0  0  0
    3.5965   -0.2466    0.9147 H   0  0  0  0  0  0  0  0  0  0  0  0
    4.1850    1.2197    0.0269 H   0  0  0  0  0  0  0  0  0  0  0  0
    2.3474   -1.2572   -0.3820 H   0  0  0  0  0  0  0  0  0  0  0  0
    1.8686   -0.5723   -1.9947 H   0  0  0  0  0  0  0  0  0  0  0  0
    0.7901   -2.8541   -0.7115 H   0  0  0  0  0  0  0  0  0  0  0  0
   -0.1132   -1.9262   -1.9611 H   0  0  0  0  0  0  0  0  0  0  0  0
  1  2  2  3
  2  3  1  0
  2  4  1  0
  4  5  1  0
  5  6  1  0
  6  7  1  0
  7  8  1  0
  7  9  2  0
  6 10  1  0
 10 11  1  0
 11 12  1  0
 12  4  1  0
  1 13  1  0
  3 14  1  0
  3 15  1  0
  4 16  1  6
  5 17  1  0
  5 18  1  0
  8 19  1  0
  8 20  1  0
 10 21  1  0
 10 22  1  0
 11 23  1  0
 11 24  1  0
M  END
$$$$
