
     RDKit          3D

 26 25  0  0  0  0  0  0  0  0999 V2000
    4.0940   -0.2327   -0.2998 N   0  0  0  0  0  0  0  0  0  0  0  0
    3.2857    0.0978    0.8087 C   0  0  0  0  0  0  0  0  0  0  0  0
    3.8327    0.5180    1.8392 O   0  0  0  0  0  0  0  0  0  0  0  0
    1.8164   -0.0797    0.6712 C   0  0  2  0  0  0  0  0  0  0  0  0
    1.4586   -0.5759   -0.6359 N   0  0  0  0  0  0  0  0  0  0  0  0
    1.0797    1.2187    0.8913 C   0  0  0  0  0  0  0  0  0  0  0  0
   -0.6852    0.8864    0.7111 S   0  0  0  0  0  0  0  0  0  0  0  0
   -1.1826    0.4409   -0.9474 C   0  0  0  0  0  0  0  0  0  0  0  0
   -2.7031    0.2303   -0.8959 C   0  0  1  0  0  0  0  0  0  0  0  0
   -3.2130   -0.1179   -2.1177 O   0  0  0  0  0  0  0  0  0  0  0  0
   -2.9789   -0.8579    0.1478 C   0  0  0  0  0  0  0  0  0  0  0  0
   -2.4552   -0.4880    1.3840 O   0  0  0  0  0  0  0  0  0  0  0  0
    3.7644    0.0157   -1.2542 H   0  0  0  0  0  0  0  0  0  0  0  0
    5.0138   -0.7217   -0.1629 H   0  0  0  0  0  0  0  0  0  0  0  0
    1.4493   -0.7998    1.4288 H   0  0  0  0  0  0  0  0  0  0  0  0
    1.6948   -1.5760   -0.7850 H   0  0  0  0  0  0  0  0  0  0  0  0
    1.7228    0.0565   -1.3967 H   0  0  0  0  0  0  0  0  0  0  0  0
    1.3498    1.9045    0.0341 H   0  0  0  0  0  0  0  0  0  0  0  0
    1.3197    1.6824    1.8623 H   0  0  0  0  0  0  0  0  0  0  0  0
   -0.9970    1.2311   -1.7032 H   0  0  0  0  0  0  0  0  0  0  0  0
   -0.7751   -0.5179   -1.3256 H   0  0  0  0  0  0  0  0  0  0  0  0
   -3.1164    1.1800   -0.5020 H   0  0  0  0  0  0  0  0  0  0  0  0
   -4.1558    0.2048   -2.1569 H   0  0  0  0  0  0  0  0  0  0  0  0
   -4.0755   -0.9765    0.2711 H   0  0  0  0  0  0  0  0  0  0  0  0
   -2.5171   -1.8223   -0.1961 H   0  0  0  0  0  0  0  0  0  0  0  0
   -3.0270   -0.9006    2.0808 H   0  0  0  0  0  0  0  0  0  0  0  0
  1  2  1  0
  2  3  2  0
  2  4  1  0
  4  5  1  0
  4  6  1  0
  6  7  1  0
  7  8  1  0
  8  9  1  0
  9 10  1  0
  9 11  1  0
 11 12  1  0
  1 13  1  0
  1 14  1  0
  4 15  1  1
  5 16  1  0
  5 17  1  0
  6 18  1  0
  6 19  1  0
  8 20  1  0
  8 21  1  0
  9 22  1  1
 10 23  1  0
 11 24  1  0
 11 25  1  0
 12 26  1  0
M  END
$$$$

     RDKit          3D

 26 25  0  0  0  0  0  0  0  0999 V2000
    2.8629    0.2727    1.9758 N   0  0  0  0  0  0  0  0  0  0  0  0
    3.2197   -0.1038    0.6705 C   0  0  0  0  0  0  0  0  0  0  0  0
    4.3423    0.1635    0.2231 O   0  0  0  0  0  0  0  0  0  0  0  0
    2.2496   -0.8210   -0.1690 C   0  0  2  0  0  0  0  0  0  0  0  0
    2.8390   -1.1119   -1.4412 N   0  0  0  0  0  0  0  0  0  0  0  0
    1.0352    0.0782   -0.2811 C   0  0  0  0  0  0  0  0  0  0  0  0
   -0.2711   -0.6345   -1.2787 S   0  0  0  0  0  0  0  0  0  0  0  0
   -1.6462    0.5479   -1.3294 C   0  0  0  0  0  0  0  0  0  0  0  0
   -2.2629    0.7116    0.0473 C   0  0  1  0  0  0  0  0  0  0  0  0
   -3.3014    1.6182   -0.0412 O   0  0  0  0  0  0  0  0  0  0  0  0
   -2.8201   -0.6435    0.4327 C   0  0  0  0  0  0  0  0  0  0  0  0
   -3.4647   -0.5365    1.6656 O   0  0  0  0  0  0  0  0  0  0  0  0
    3.5259    0.8133    2.5609 H   0  0  0  0  0  0  0  0  0  0  0  0
    1.9451    0.0413    2.4215 H   0  0  0  0  0  0  0  0  0  0  0  0
    1.9971   -1.7878    0.3212 H   0  0  0  0  0  0  0  0  0  0  0  0
    3.7881   -0.7100   -1.5816 H   0  0  0  0  0  0  0  0  0  0  0  0
    2.2002   -0.9870   -2.2531 H   0  0  0  0  0  0  0  0  0  0  0  0
    1.3580    1.0332   -0.7112 H   0  0  0  0  0  0  0  0  0  0  0  0
    0.6764    0.2434    0.7703 H   0  0  0  0  0  0  0  0  0  0  0  0
   -1.3563    1.5397   -1.6805 H   0  0  0  0  0  0  0  0  0  0  0  0
   -2.4141    0.1620   -2.0359 H   0  0  0  0  0  0  0  0  0  0  0  0
   -1.5118    1.0859    0.7508 H   0  0  0  0  0  0  0  0  0  0  0  0
   -3.1712    2.2956   -0.7526 H   0  0  0  0  0  0  0  0  0  0  0  0
   -3.5303   -0.9288   -0.3594 H   0  0  0  0  0  0  0  0  0  0  0  0
   -1.9515   -1.3357    0.5054 H   0  0  0  0  0  0  0  0  0  0  0  0
   -4.3379   -1.0059    1.5698 H   0  0  0  0  0  0  0  0  0  0  0  0
  1  2  1  0
  2  3  2  0
  2  4  1  0
  4  5  1  0
  4  6  1  0
  6  7  1  0
  7  8  1  0
  8  9  1  0
  9 10  1  0
  9 11  1  0
 11 12  1  0
  1 13  1  0
  1 14  1  0
  4 15  1  1
  5 16  1  0
  5 17  1  0
  6 18  1  0
  6 19  1  0
  8 20  1  0
  8 21  1  0
  9 22  1  1
 10 23  1  0
 11 24  1  0
 11 25  1  0
 12 26  1  0
M  END
$$$$

     RDKit          3D

 26 25  0  0  0  0  0  0  0  0999 V2000
   -2.3976    1.6037    0.2319 N   0  0  0  0  0  0  0  0  0  0  0  0
   -2.1408    0.4751   -0.6213 C   0  0  0  0  0  0  0  0  0  0  0  0
   -1.7486    0.7674   -1.7785 O   0  0  0  0  0  0  0  0  0  0  0  0
   -2.3188   -0.9096   -0.1913 C   0  0  2  0  0  0  0  0  0  0  0  0
   -3.1895   -0.8050    1.0277 N   0  0  0  0  0  0  0  0  0  0  0  0
   -1.1433   -1.6748    0.2745 C   0  0  0  0  0  0  0  0  0  0  0  0
    0.2348   -1.9365   -0.7832 S   0  0  0  0  0  0  0  0  0  0  0  0
    1.2497   -0.5099   -1.0337 C   0  0  0  0  0  0  0  0  0  0  0  0
    1.9530   -0.0488    0.2486 C   0  0  1  0  0  0  0  0  0  0  0  0
    2.7763   -1.0588    0.7450 O   0  0  0  0  0  0  0  0  0  0  0  0
    2.8081    1.1360   -0.1507 C   0  0  0  0  0  0  0  0  0  0  0  0
    3.5209    1.6373    0.9356 O   0  0  0  0  0  0  0  0  0  0  0  0
   -1.5842    2.1501    0.5398 H   0  0  0  0  0  0  0  0  0  0  0  0
   -3.3450    1.8840    0.5445 H   0  0  0  0  0  0  0  0  0  0  0  0
   -2.9456   -1.4921   -0.9106 H   0  0  0  0  0  0  0  0  0  0  0  0
   -2.6408   -0.1114    1.6173 H   0  0  0  0  0  0  0  0  0  0  0  0
   -4.1050   -0.4194    0.7562 H   0  0  0  0  0  0  0  0  0  0  0  0
   -0.8181   -1.1988    1.2531 H   0  0  0  0  0  0  0  0  0  0  0  0
   -1.5517   -2.7066    0.5737 H   0  0  0  0  0  0  0  0  0  0  0  0
    0.7676    0.3715   -1.4342 H   0  0  0  0  0  0  0  0  0  0  0  0
    2.1275   -0.7456   -1.7277 H   0  0  0  0  0  0  0  0  0  0  0  0
    1.2521    0.2466    1.0391 H   0  0  0  0  0  0  0  0  0  0  0  0
    3.1753   -1.5259   -0.0317 H   0  0  0  0  0  0  0  0  0  0  0  0
    3.5140    0.8806   -0.9554 H   0  0  0  0  0  0  0  0  0  0  0  0
    2.1868    1.9668   -0.5404 H   0  0  0  0  0  0  0  0  0  0  0  0
    4.3633    2.0238    0.5751 H   0  0  0  0  0  0  0  0  0  0  0  0
  1  2  1  0
  2  3  2  0
  2  4  1  0
  4  5  1  0
  4  6  1  0
  6  7  1  0
  7  8  1  0
  8  9  1  0
  9 10  1  0
  9 11  1  0
 11 12  1  0
  1 13  1  0
  1 14  1  0
  4 15  1  6
  5 16  1  0
  5 17  1  0
  6 18  1  0
  6 19  1  0
  8 20  1  0
  8 21  1  0
  9 22  1  1
 10 23  1  0
 11 24  1  0
 11 25  1  0
 12 26  1  0
M  END
$$$$

     RDKit          3D

 26 25  0  0  0  0  0  0  0  0999 V2000
    4.1503   -0.0765   -0.3588 N   0  0  0  0  0  0  0  0  0  0  0  0
    3.3093   -0.8225    0.5017 C   0  0  0  0  0  0  0  0  0  0  0  0
    3.8058   -1.4721    1.4365 O   0  0  0  0  0  0  0  0  0  0  0  0
    1.8388   -0.8107    0.2638 C   0  0  2  0  0  0  0  0  0  0  0  0
    1.5259    0.0205   -0.8819 N   0  0  0  0  0  0  0  0  0  0  0  0
    1.1659   -0.2917    1.5083 C   0  0  0  0  0  0  0  0  0  0  0  0
   -0.6102   -0.2585    1.2913 S   0  0  0  0  0  0  0  0  0  0  0  0
   -1.1264    0.9347    0.0591 C   0  0  0  0  0  0  0  0  0  0  0  0
   -2.6572    0.8842   -0.0142 C   0  0  1  0  0  0  0  0  0  0  0  0
   -3.1298    1.7926   -0.9607 O   0  0  0  0  0  0  0  0  0  0  0  0
   -3.0494   -0.5007   -0.4869 C   0  0  0  0  0  0  0  0  0  0  0  0
   -4.4473   -0.5186   -0.5718 O   0  0  0  0  0  0  0  0  0  0  0  0
    4.5749    0.7939    0.0506 H   0  0  0  0  0  0  0  0  0  0  0  0
    4.3677   -0.3315   -1.3465 H   0  0  0  0  0  0  0  0  0  0  0  0
    1.4712   -1.8334    0.0718 H   0  0  0  0  0  0  0  0  0  0  0  0
    2.1327   -0.2372   -1.6784 H   0  0  0  0  0  0  0  0  0  0  0  0
    1.7170    1.0077   -0.6413 H   0  0  0  0  0  0  0  0  0  0  0  0
    1.5083    0.7629    1.6579 H   0  0  0  0  0  0  0  0  0  0  0  0
    1.4421   -0.9036    2.3873 H   0  0  0  0  0  0  0  0  0  0  0  0
   -0.8272    1.9623    0.3338 H   0  0  0  0  0  0  0  0  0  0  0  0
   -0.7175    0.7185   -0.9495 H   0  0  0  0  0  0  0  0  0  0  0  0
   -3.0776    1.0614    0.9906 H   0  0  0  0  0  0  0  0  0  0  0  0
   -3.1523    1.3430   -1.8307 H   0  0  0  0  0  0  0  0  0  0  0  0
   -2.5680   -0.7505   -1.4358 H   0  0  0  0  0  0  0  0  0  0  0  0
   -2.7859   -1.2670    0.2860 H   0  0  0  0  0  0  0  0  0  0  0  0
   -4.8612   -1.2073   -0.0088 H   0  0  0  0  0  0  0  0  0  0  0  0
  1  2  1  0
  2  3  2  0
  2  4  1  0
  4  5  1  0
  4  6  1  0
  6  7  1  0
  7  8  1  0
  8  9  1  0
  9 10  1  0
  9 11  1  0
 11 12  1  0
  1 13  1  0
  1 14  1  0
  4 15  1  6
  5 16  1  0
  5 17  1  0
  6 18  1  0
  6 19  1  0
  8 20  1  0
  8 21  1  0
  9 22  1  1
 10 23  1  0
 11 24  1  0
 11 25  1  0
 12 26  1  0
M  END
$$$$

     RDKit          3D

 26 25  0  0  0  0  0  0  0  0999 V2000
    2.1225    1.8071    0.7662 N   0  0  0  0  0  0  0  0  0  0  0  0
    2.7579    0.6248    0.3389 C   0  0  0  0  0  0  0  0  0  0  0  0
    4.0034    0.5686    0.2635 O   0  0  0  0  0  0  0  0  0  0  0  0
    1.9572   -0.5516   -0.0217 C   0  0  2  0  0  0  0  0  0  0  0  0
    2.7676   -1.6725   -0.4495 N   0  0  0  0  0  0  0  0  0  0  0  0
    0.9369   -0.1494   -1.0656 C   0  0  0  0  0  0  0  0  0  0  0  0
   -0.0975    1.1452   -0.2927 S   0  0  0  0  0  0  0  0  0  0  0  0
   -1.0540    0.4029    1.0855 C   0  0  0  0  0  0  0  0  0  0  0  0
   -2.0174   -0.5798    0.4080 C   0  0  1  0  0  0  0  0  0  0  0  0
   -2.8206   -1.2344    1.3138 O   0  0  0  0  0  0  0  0  0  0  0  0
   -2.8256    0.2668   -0.5679 C   0  0  0  0  0  0  0  0  0  0  0  0
   -3.6782   -0.5549   -1.2549 O   0  0  0  0  0  0  0  0  0  0  0  0
    1.8219    1.8863    1.7560 H   0  0  0  0  0  0  0  0  0  0  0  0
    1.9482    2.6030    0.1123 H   0  0  0  0  0  0  0  0  0  0  0  0
    1.3496   -0.9182    0.8522 H   0  0  0  0  0  0  0  0  0  0  0  0
    2.6064   -1.8393   -1.4849 H   0  0  0  0  0  0  0  0  0  0  0  0
    3.7756   -1.5420   -0.2370 H   0  0  0  0  0  0  0  0  0  0  0  0
    0.3306   -0.9982   -1.4253 H   0  0  0  0  0  0  0  0  0  0  0  0
    1.4676    0.3074   -1.9339 H   0  0  0  0  0  0  0  0  0  0  0  0
   -1.6338    1.2175    1.5678 H   0  0  0  0  0  0  0  0  0  0  0  0
   -0.4069   -0.0854    1.8165 H   0  0  0  0  0  0  0  0  0  0  0  0
   -1.3896   -1.2892   -0.1573 H   0  0  0  0  0  0  0  0  0  0  0  0
   -3.0460   -0.6914    2.0932 H   0  0  0  0  0  0  0  0  0  0  0  0
   -2.1204    0.7603   -1.2631 H   0  0  0  0  0  0  0  0  0  0  0  0
   -3.3433    1.0850   -0.0165 H   0  0  0  0  0  0  0  0  0  0  0  0
   -3.4119   -0.5686   -2.2036 H   0  0  0  0  0  0  0  0  0  0  0  0
  1  2  1  0
  2  3  2  0
  2  4  1  0
  4  5  1  0
  4  6  1  0
  6  7  1  0
  7  8  1  0
  8  9  1  0
  9 10  1  0
  9 11  1  0
 11 12  1  0
  1 13  1  0
  1 14  1  0
  4 15  1  1
  5 16  1  0
  5 17  1  0
  6 18  1  0
  6 19  1  0
  8 20  1  0
  8 21  1  0
  9 22  1  6
 10 23  1  0
 11 24  1  0
 11 25  1  0
 12 26  1  0
M  END
$$$$

     RDKit          3D

 26 25  0  0  0  0  0  0  0  0999 V2000
   -1.7914    2.0620    0.3871 N   0  0  0  0  0  0  0  0  0  0  0  0
   -2.3503    0.8113    0.7287 C   0  0  0  0  0  0  0  0  0  0  0  0
   -2.8180    0.5959    1.8639 O   0  0  0  0  0  0  0  0  0  0  0  0
   -2.3873   -0.2757   -0.2764 C   0  0  2  0  0  0  0  0  0  0  0  0
   -3.0266   -1.4442    0.2948 N   0  0  0  0  0  0  0  0  0  0  0  0
   -0.9773   -0.5863   -0.7335 C   0  0  0  0  0  0  0  0  0  0  0  0
    0.0664   -1.1175    0.6488 S   0  0  0  0  0  0  0  0  0  0  0  0
    1.7388   -1.4830    0.1165 C   0  0  0  0  0  0  0  0  0  0  0  0
    2.4809   -0.2548   -0.3683 C   0  0  1  0  0  0  0  0  0  0  0  0
    1.8589    0.3530   -1.4469 O   0  0  0  0  0  0  0  0  0  0  0  0
    2.5377    0.8023    0.7420 C   0  0  0  0  0  0  0  0  0  0  0  0
    1.1877    1.1319    0.9924 O   0  0  0  0  0  0  0  0  0  0  0  0
   -2.0978    2.9748    0.7949 H   0  0  0  0  0  0  0  0  0  0  0  0
   -1.0272    2.1145   -0.3082 H   0  0  0  0  0  0  0  0  0  0  0  0
   -2.9893    0.0392   -1.1423 H   0  0  0  0  0  0  0  0  0  0  0  0
   -2.8076   -1.5758    1.3040 H   0  0  0  0  0  0  0  0  0  0  0  0
   -2.8380   -2.3071   -0.2498 H   0  0  0  0  0  0  0  0  0  0  0  0
   -0.9678   -1.4015   -1.4760 H   0  0  0  0  0  0  0  0  0  0  0  0
   -0.5555    0.3352   -1.1695 H   0  0  0  0  0  0  0  0  0  0  0  0
    1.7608   -2.2160   -0.7092 H   0  0  0  0  0  0  0  0  0  0  0  0
    2.3357   -1.9160    0.9440 H   0  0  0  0  0  0  0  0  0  0  0  0
    3.5201   -0.5346   -0.5856 H   0  0  0  0  0  0  0  0  0  0  0  0
    1.8991   -0.1926   -2.2847 H   0  0  0  0  0  0  0  0  0  0  0  0
    3.0145    0.3437    1.6210 H   0  0  0  0  0  0  0  0  0  0  0  0
    3.0651    1.6622    0.3234 H   0  0  0  0  0  0  0  0  0  0  0  0
    1.1683    2.0791    1.3219 H   0  0  0  0  0  0  0  0  0  0  0  0
  1  2  1  0
  2  3  2  0
  2  4  1  0
  4  5  1  0
  4  6  1  0
  6  7  1  0
  7  8  1  0
  8  9  1  0
  9 10  1  0
  9 11  1  0
 11 12  1  0
  1 13  1  0
  1 14  1  0
  4 15  1  6
  5 16  1  0
  5 17  1  0
  6 18  1  0
  6 19  1  0
  8 20  1  0
  8 21  1  0
  9 22  1  6
 10 23  1  0
 11 24  1  0
 11 25  1  0
 12 26  1  0
M  END
$$$$

     RDKit          3D

 26 25  0  0  0  0  0  0  0  0999 V2000
   -1.7463    1.6748   -0.7218 N   0  0  0  0  0  0  0  0  0  0  0  0
   -2.0376    0.7827    0.3339 C   0  0  0  0  0  0  0  0  0  0  0  0
   -1.9179    1.1550    1.5185 O   0  0  0  0  0  0  0  0  0  0  0  0
   -2.4869   -0.5881    0.0457 C   0  0  2  0  0  0  0  0  0  0  0  0
   -2.8135   -1.2860    1.2837 N   0  0  0  0  0  0  0  0  0  0  0  0
   -1.5754   -1.3620   -0.8267 C   0  0  0  0  0  0  0  0  0  0  0  0
    0.0816   -1.6575   -0.2378 S   0  0  0  0  0  0  0  0  0  0  0  0
    1.0114   -0.1457   -0.1732 C   0  0  0  0  0  0  0  0  0  0  0  0
    2.4455   -0.3324    0.2889 C   0  0  1  0  0  0  0  0  0  0  0  0
    3.0857   -1.1966   -0.6019 O   0  0  0  0  0  0  0  0  0  0  0  0
    3.1106    1.0347    0.0685 C   0  0  0  0  0  0  0  0  0  0  0  0
    2.5787    2.0133    0.8810 O   0  0  0  0  0  0  0  0  0  0  0  0
   -1.9926    2.6883   -0.6116 H   0  0  0  0  0  0  0  0  0  0  0  0
   -1.2970    1.4179   -1.6314 H   0  0  0  0  0  0  0  0  0  0  0  0
   -3.4648   -0.4880   -0.4992 H   0  0  0  0  0  0  0  0  0  0  0  0
   -3.6731   -0.7812    1.6550 H   0  0  0  0  0  0  0  0  0  0  0  0
   -3.0814   -2.2591    1.0894 H   0  0  0  0  0  0  0  0  0  0  0  0
   -2.0356   -2.3524   -1.1228 H   0  0  0  0  0  0  0  0  0  0  0  0
   -1.5586   -0.8116   -1.8238 H   0  0  0  0  0  0  0  0  0  0  0  0
    1.0799    0.2794   -1.2080 H   0  0  0  0  0  0  0  0  0  0  0  0
    0.4919    0.5988    0.4445 H   0  0  0  0  0  0  0  0  0  0  0  0
    2.5497   -0.6455    1.3249 H   0  0  0  0  0  0  0  0  0  0  0  0
    3.7107   -1.7674   -0.0540 H   0  0  0  0  0  0  0  0  0  0  0  0
    4.2140    0.9360    0.1672 H   0  0  0  0  0  0  0  0  0  0  0  0
    2.8475    1.3125   -0.9896 H   0  0  0  0  0  0  0  0  0  0  0  0
    2.4732    1.7802    1.8266 H   0  0  0  0  0  0  0  0  0  0  0  0
  1  2  1  0
  2  3  2  0
  2  4  1  0
  4  5  1  0
  4  6  1  0
  6  7  1  0
  7  8  1  0
  8  9  1  0
  9 10  1  0
  9 11  1  0
 11 12  1  0
  1 13  1  0
  1 14  1  0
  4 15  1  6
  5 16  1  0
  5 17  1  0
  6 18  1  0
  6 19  1  0
  8 20  1  0
  8 21  1  0
  9 22  1  1
 10 23  1  0
 11 24  1  0
 11 25  1  0
 12 26  1  0
M  END
$$$$

     RDKit          3D

 26 25  0  0  0  0  0  0  0  0999 V2000
   -4.3212    0.1484   -0.6301 N   0  0  0  0  0  0  0  0  0  0  0  0
   -3.1248   -0.5992   -0.7844 C   0  0  0  0  0  0  0  0  0  0  0  0
   -2.8309   -1.0951   -1.9219 O   0  0  0  0  0  0  0  0  0  0  0  0
   -2.2389   -0.7937    0.3662 C   0  0  2  0  0  0  0  0  0  0  0  0
   -2.7977   -0.1397    1.5230 N   0  0  0  0  0  0  0  0  0  0  0  0
   -0.9124   -0.1372    0.0501 C   0  0  0  0  0  0  0  0  0  0  0  0
    0.2492   -0.3277    1.4232 S   0  0  0  0  0  0  0  0  0  0  0  0
    1.7901    0.4907    1.0072 C   0  0  0  0  0  0  0  0  0  0  0  0
    2.5290   -0.1669   -0.1334 C   0  0  1  0  0  0  0  0  0  0  0  0
    1.7513   -0.1565   -1.2622 O   0  0  0  0  0  0  0  0  0  0  0  0
    3.7791    0.6774   -0.3771 C   0  0  0  0  0  0  0  0  0  0  0  0
    4.5905    0.6820    0.7638 O   0  0  0  0  0  0  0  0  0  0  0  0
   -5.2531   -0.3256   -0.6099 H   0  0  0  0  0  0  0  0  0  0  0  0
   -4.2889    1.1820   -0.5344 H   0  0  0  0  0  0  0  0  0  0  0  0
   -2.0228   -1.8640    0.5625 H   0  0  0  0  0  0  0  0  0  0  0  0
   -3.7425   -0.5154    1.7292 H   0  0  0  0  0  0  0  0  0  0  0  0
   -2.8556    0.8785    1.3321 H   0  0  0  0  0  0  0  0  0  0  0  0
   -1.0467    0.9285   -0.2005 H   0  0  0  0  0  0  0  0  0  0  0  0
   -0.4644   -0.6425   -0.8353 H   0  0  0  0  0  0  0  0  0  0  0  0
    1.6269    1.5609    0.6815 H   0  0  0  0  0  0  0  0  0  0  0  0
    2.4595    0.6003    1.9083 H   0  0  0  0  0  0  0  0  0  0  0  0
    2.8312   -1.2071    0.1269 H   0  0  0  0  0  0  0  0  0  0  0  0
    1.8139   -0.9875   -1.7622 H   0  0  0  0  0  0  0  0  0  0  0  0
    3.4959    1.7290   -0.5599 H   0  0  0  0  0  0  0  0  0  0  0  0
    4.3268    0.3409   -1.2797 H   0  0  0  0  0  0  0  0  0  0  0  0
    4.6565   -0.2606    1.0731 H   0  0  0  0  0  0  0  0  0  0  0  0
  1  2  1  0
  2  3  2  0
  2  4  1  0
  4  5  1  0
  4  6  1  0
  6  7  1  0
  7  8  1  0
  8  9  1  0
  9 10  1  0
  9 11  1  0
 11 12  1  0
  1 13  1  0
  1 14  1  0
  4 15  1  1
  5 16  1  0
  5 17  1  0
  6 18  1  0
  6 19  1  0
  8 20  1  0
  8 21  1  0
  9 22  1  1
 10 23  1  0
 11 24  1  0
 11 25  1  0
 12 26  1  0
M  END
$$$$
