
     RDKit          3D

 21 21  0  0  0  0  0  0  0  0999 V2000
   -4.3844    1.1018    0.6367 C   0  0  0  0  0  0  0  0  0  0  0  0
   -3.0359    0.4886    0.4743 C   0  0  0  0  0  0  0  0  0  0  0  0
   -2.6700   -0.7490    0.8641 N   0  0  0  0  0  0  0  0  0  0  0  0
   -1.3912   -0.9422    0.5527 N   0  0  0  0  0  0  0  0  0  0  0  0
   -0.9119    0.1642   -0.0415 C   0  0  0  0  0  0  0  0  0  0  0  0
    0.4537    0.3265   -0.5233 C   0  0  0  0  0  0  0  0  0  0  0  0
    0.8219    1.3961   -1.0688 O   0  0  0  0  0  0  0  0  0  0  0  0
    1.4082   -0.7084   -0.3948 N   0  0  0  0  0  0  0  0  0  0  0  0
    2.7624   -0.6236   -0.8418 C   0  0  0  0  0  0  0  0  0  0  0  0
    3.4721    0.5008   -0.1497 C   0  0  0  0  0  0  0  0  0  0  0  0
    2.9366    1.2378    0.6878 O   0  0  0  0  0  0  0  0  0  0  0  0
    4.7965    0.7014   -0.4859 O   0  0  0  0  0  0  0  0  0  0  0  0
   -1.9302    1.0262   -0.0804 N   0  0  0  0  0  0  0  0  0  0  0  0
   -4.6760    1.1717    1.6981 H   0  0  0  0  0  0  0  0  0  0  0  0
   -5.1355    0.5079    0.0844 H   0  0  0  0  0  0  0  0  0  0  0  0
   -4.3421    2.0940    0.1447 H   0  0  0  0  0  0  0  0  0  0  0  0
   -0.8858   -1.8410    0.7628 H   0  0  0  0  0  0  0  0  0  0  0  0
    1.0694   -1.5948    0.0675 H   0  0  0  0  0  0  0  0  0  0  0  0
    2.8614   -0.5359   -1.9466 H   0  0  0  0  0  0  0  0  0  0  0  0
    3.3161   -1.5418   -0.5605 H   0  0  0  0  0  0  0  0  0  0  0  0
    5.4646    1.1617    0.1202 H   0  0  0  0  0  0  0  0  0  0  0  0
  1  2  1  0
  2  3  2  0
  3  4  1  0
  4  5  1  0
  5  6  1  0
  6  7  2  0
  6  8  1  0
  8  9  1  0
  9 10  1  0
 10 11  2  0
 10 12  1  0
  5 13  2  0
 13  2  1  0
  1 14  1  0
  1 15  1  0
  1 16  1  0
  4 17  1  0
  8 18  1  0
  9 19  1  0
  9 20  1  0
 12 21  1  0
M  END
$$$$

     RDKit          3D

 21 21  0  0  0  0  0  0  0  0999 V2000
   -4.6109   -0.4142    0.2258 C   0  0  0  0  0  0  0  0  0  0  0  0
   -3.2012   -0.1736   -0.1600 C   0  0  0  0  0  0  0  0  0  0  0  0
   -2.6907    0.3271   -1.2864 N   0  0  0  0  0  0  0  0  0  0  0  0
   -1.3733    0.3759   -1.2268 N   0  0  0  0  0  0  0  0  0  0  0  0
   -1.0276   -0.1156   -0.0080 C   0  0  0  0  0  0  0  0  0  0  0  0
    0.3086   -0.2686    0.5358 C   0  0  0  0  0  0  0  0  0  0  0  0
    0.4426   -0.7457    1.6920 O   0  0  0  0  0  0  0  0  0  0  0  0
    1.4683    0.1179   -0.2315 N   0  0  0  0  0  0  0  0  0  0  0  0
    2.7407   -0.0710    0.3893 C   0  0  0  0  0  0  0  0  0  0  0  0
    3.8773    0.3409   -0.4415 C   0  0  0  0  0  0  0  0  0  0  0  0
    3.7815    0.8185   -1.5936 O   0  0  0  0  0  0  0  0  0  0  0  0
    5.1557    0.1943    0.0791 O   0  0  0  0  0  0  0  0  0  0  0  0
   -2.1541   -0.4425    0.6216 N   0  0  0  0  0  0  0  0  0  0  0  0
   -4.6354   -1.3384    0.8389 H   0  0  0  0  0  0  0  0  0  0  0  0
   -4.9429    0.4209    0.8962 H   0  0  0  0  0  0  0  0  0  0  0  0
   -5.2693   -0.5010   -0.6586 H   0  0  0  0  0  0  0  0  0  0  0  0
   -0.7021    0.7172   -1.9516 H   0  0  0  0  0  0  0  0  0  0  0  0
    1.2773    0.5035   -1.1770 H   0  0  0  0  0  0  0  0  0  0  0  0
    2.8653   -1.1186    0.7868 H   0  0  0  0  0  0  0  0  0  0  0  0
    2.7599    0.5676    1.3209 H   0  0  0  0  0  0  0  0  0  0  0  0
    5.9306    0.8054   -0.1462 H   0  0  0  0  0  0  0  0  0  0  0  0
  1  2  1  0
  2  3  2  0
  3  4  1  0
  4  5  1  0
  5  6  1  0
  6  7  2  0
  6  8  1  0
  8  9  1  0
  9 10  1  0
 10 11  2  0
 10 12  1  0
  5 13  2  0
 13  2  1  0
  1 14  1  0
  1 15  1  0
  1 16  1  0
  4 17  1  0
  8 18  1  0
  9 19  1  0
  9 20  1  0
 12 21  1  0
M  END
$$$$

     RDKit          3D

 21 21  0  0  0  0  0  0  0  0999 V2000
    4.6665   -0.0436   -0.0255 C   0  0  0  0  0  0  0  0  0  0  0  0
    3.1849   -0.1293    0.1656 C   0  0  0  0  0  0  0  0  0  0  0  0
    2.5556   -0.7134    1.1986 N   0  0  0  0  0  0  0  0  0  0  0  0
    1.2511   -0.5861    1.0145 N   0  0  0  0  0  0  0  0  0  0  0  0
    1.0064    0.0812   -0.1384 C   0  0  0  0  0  0  0  0  0  0  0  0
   -0.3170    0.4009   -0.6564 C   0  0  0  0  0  0  0  0  0  0  0  0
   -0.4201    1.0253   -1.7388 O   0  0  0  0  0  0  0  0  0  0  0  0
   -1.4917    0.0181    0.0422 N   0  0  0  0  0  0  0  0  0  0  0  0
   -2.7664    0.3733   -0.5389 C   0  0  0  0  0  0  0  0  0  0  0  0
   -3.8346   -0.1285    0.3635 C   0  0  0  0  0  0  0  0  0  0  0  0
   -3.5768   -0.7356    1.4112 O   0  0  0  0  0  0  0  0  0  0  0  0
   -5.1534    0.1228   -0.0358 O   0  0  0  0  0  0  0  0  0  0  0  0
    2.2158    0.3538   -0.6465 N   0  0  0  0  0  0  0  0  0  0  0  0
    5.0774   -0.9818   -0.4266 H   0  0  0  0  0  0  0  0  0  0  0  0
    5.1654    0.1528    0.9452 H   0  0  0  0  0  0  0  0  0  0  0  0
    4.9278    0.7771   -0.7224 H   0  0  0  0  0  0  0  0  0  0  0  0
    0.5351   -0.9667    1.6964 H   0  0  0  0  0  0  0  0  0  0  0  0
   -1.4277   -0.5123    0.9621 H   0  0  0  0  0  0  0  0  0  0  0  0
   -2.8392    1.4795   -0.6325 H   0  0  0  0  0  0  0  0  0  0  0  0
   -2.8927   -0.0828   -1.5486 H   0  0  0  0  0  0  0  0  0  0  0  0
   -5.8663    0.0955    0.7020 H   0  0  0  0  0  0  0  0  0  0  0  0
  1  2  1  0
  2  3  2  0
  3  4  1  0
  4  5  1  0
  5  6  1  0
  6  7  2  0
  6  8  1  0
  8  9  1  0
  9 10  1  0
 10 11  2  0
 10 12  1  0
  5 13  2  0
 13  2  1  0
  1 14  1  0
  1 15  1  0
  1 16  1  0
  4 17  1  0
  8 18  1  0
  9 19  1  0
  9 20  1  0
 12 21  1  0
M  END
$$$$

     RDKit          3D

 21 21  0  0  0  0  0  0  0  0999 V2000
   -4.0884   -0.0538    0.4945 C   0  0  0  0  0  0  0  0  0  0  0  0
   -2.8247    0.4760   -0.0892 C   0  0  0  0  0  0  0  0  0  0  0  0
   -2.5506    1.5824   -0.7423 N   0  0  0  0  0  0  0  0  0  0  0  0
   -1.2436    1.5952   -1.0606 N   0  0  0  0  0  0  0  0  0  0  0  0
   -0.6850    0.4823   -0.6059 C   0  0  0  0  0  0  0  0  0  0  0  0
    0.7264    0.0334   -0.7711 C   0  0  0  0  0  0  0  0  0  0  0  0
    1.5008    0.5232   -1.6169 O   0  0  0  0  0  0  0  0  0  0  0  0
    1.1965   -0.9726    0.0968 N   0  0  0  0  0  0  0  0  0  0  0  0
    2.5467   -1.4621    0.0772 C   0  0  0  0  0  0  0  0  0  0  0  0
    3.5512   -0.3449    0.1749 C   0  0  0  0  0  0  0  0  0  0  0  0
    4.7266   -0.5472   -0.2203 O   0  0  0  0  0  0  0  0  0  0  0  0
    3.2778    0.9419    0.6727 O   0  0  0  0  0  0  0  0  0  0  0  0
   -1.6416   -0.2360    0.0038 N   0  0  0  0  0  0  0  0  0  0  0  0
   -4.7889   -0.3360   -0.2931 H   0  0  0  0  0  0  0  0  0  0  0  0
   -4.5604    0.6840    1.2202 H   0  0  0  0  0  0  0  0  0  0  0  0
   -3.9556   -0.9457    1.1272 H   0  0  0  0  0  0  0  0  0  0  0  0
   -0.8478    2.4138   -1.5947 H   0  0  0  0  0  0  0  0  0  0  0  0
    0.5323   -1.3995    0.8194 H   0  0  0  0  0  0  0  0  0  0  0  0
    2.8140   -2.0306   -0.8417 H   0  0  0  0  0  0  0  0  0  0  0  0
    2.7429   -2.0751    0.9805 H   0  0  0  0  0  0  0  0  0  0  0  0
    3.5713    1.6716   -0.0313 H   0  0  0  0  0  0  0  0  0  0  0  0
  1  2  1  0
  2  3  2  0
  3  4  1  0
  4  5  1  0
  5  6  1  0
  6  7  2  0
  6  8  1  0
  8  9  1  0
  9 10  1  0
 10 11  2  0
 10 12  1  0
  5 13  2  0
 13  2  1  0
  1 14  1  0
  1 15  1  0
  1 16  1  0
  4 17  1  0
  8 18  1  0
  9 19  1  0
  9 20  1  0
 12 21  1  0
M  END
$$$$

     RDKit          3D

 21 21  0  0  0  0  0  0  0  0999 V2000
   -3.8615    1.1495   -0.5729 C   0  0  0  0  0  0  0  0  0  0  0  0
   -2.7363    0.4154    0.0462 C   0  0  0  0  0  0  0  0  0  0  0  0
   -2.7403   -0.9507    0.3386 N   0  0  0  0  0  0  0  0  0  0  0  0
   -1.5546   -1.2668    0.7650 N   0  0  0  0  0  0  0  0  0  0  0  0
   -0.8129   -0.1771    0.7509 C   0  0  0  0  0  0  0  0  0  0  0  0
    0.6161   -0.1994    0.9947 C   0  0  0  0  0  0  0  0  0  0  0  0
    1.0926    0.3534    1.9254 O   0  0  0  0  0  0  0  0  0  0  0  0
    1.3670   -0.9290    0.0452 N   0  0  0  0  0  0  0  0  0  0  0  0
    2.8159   -1.0475    0.2366 C   0  0  0  0  0  0  0  0  0  0  0  0
    3.3895    0.2680    0.0237 C   0  0  0  0  0  0  0  0  0  0  0  0
    4.2241    0.4224   -0.9668 O   0  0  0  0  0  0  0  0  0  0  0  0
    3.1136    1.3776    0.7667 O   0  0  0  0  0  0  0  0  0  0  0  0
   -1.5040    0.8663    0.3158 N   0  0  0  0  0  0  0  0  0  0  0  0
   -3.7158    2.2344   -0.4745 H   0  0  0  0  0  0  0  0  0  0  0  0
   -4.8628    0.8084   -0.1848 H   0  0  0  0  0  0  0  0  0  0  0  0
   -3.8171    0.9730   -1.7001 H   0  0  0  0  0  0  0  0  0  0  0  0
   -1.1861   -2.2124    1.0390 H   0  0  0  0  0  0  0  0  0  0  0  0
    0.9116   -1.2999   -0.8148 H   0  0  0  0  0  0  0  0  0  0  0  0
    3.2247   -1.8311   -0.3999 H   0  0  0  0  0  0  0  0  0  0  0  0
    2.9341   -1.2625    1.3305 H   0  0  0  0  0  0  0  0  0  0  0  0
    3.1025    2.3080    0.3565 H   0  0  0  0  0  0  0  0  0  0  0  0
  1  2  1  0
  2  3  2  0
  3  4  1  0
  4  5  1  0
  5  6  1  0
  6  7  2  0
  6  8  1  0
  8  9  1  0
  9 10  1  0
 10 11  2  0
 10 12  1  0
  5 13  2  0
 13  2  1  0
  1 14  1  0
  1 15  1  0
  1 16  1  0
  4 17  1  0
  8 18  1  0
  9 19  1  0
  9 20  1  0
 12 21  1  0
M  END
$$$$

     RDKit          3D

 21 21  0  0  0  0  0  0  0  0999 V2000
    4.6683    0.4461    0.1922 C   0  0  0  0  0  0  0  0  0  0  0  0
    3.2046    0.1909    0.3611 C   0  0  0  0  0  0  0  0  0  0  0  0
    2.6419   -0.5577    1.3308 N   0  0  0  0  0  0  0  0  0  0  0  0
    1.3156   -0.5605    1.1661 N   0  0  0  0  0  0  0  0  0  0  0  0
    1.0073    0.1880    0.0857 C   0  0  0  0  0  0  0  0  0  0  0  0
   -0.3198    0.4532   -0.4521 C   0  0  0  0  0  0  0  0  0  0  0  0
   -0.4081    1.1785   -1.4720 O   0  0  0  0  0  0  0  0  0  0  0  0
   -1.4818   -0.0678    0.1245 N   0  0  0  0  0  0  0  0  0  0  0  0
   -2.8204    0.1597   -0.3623 C   0  0  0  0  0  0  0  0  0  0  0  0
   -3.8261   -0.5472    0.4925 C   0  0  0  0  0  0  0  0  0  0  0  0
   -3.4913   -1.2370    1.4947 O   0  0  0  0  0  0  0  0  0  0  0  0
   -5.1825   -0.4706    0.2132 O   0  0  0  0  0  0  0  0  0  0  0  0
    2.1837    0.6345   -0.3858 N   0  0  0  0  0  0  0  0  0  0  0  0
    5.2401   -0.4697    0.0456 H   0  0  0  0  0  0  0  0  0  0  0  0
    4.7687    1.0950   -0.7227 H   0  0  0  0  0  0  0  0  0  0  0  0
    5.0692    1.0131    1.0811 H   0  0  0  0  0  0  0  0  0  0  0  0
    0.6281   -1.0511    1.7610 H   0  0  0  0  0  0  0  0  0  0  0  0
   -1.3668   -0.6712    0.9783 H   0  0  0  0  0  0  0  0  0  0  0  0
   -3.0200    1.2526   -0.2705 H   0  0  0  0  0  0  0  0  0  0  0  0
   -2.9482   -0.1298   -1.4189 H   0  0  0  0  0  0  0  0  0  0  0  0
   -5.8625   -0.8489    0.8519 H   0  0  0  0  0  0  0  0  0  0  0  0
  1  2  1  0
  2  3  2  0
  3  4  1  0
  4  5  1  0
  5  6  1  0
  6  7  2  0
  6  8  1  0
  8  9  1  0
  9 10  1  0
 10 11  2  0
 10 12  1  0
  5 13  2  0
 13  2  1  0
  1 14  1  0
  1 15  1  0
  1 16  1  0
  4 17  1  0
  8 18  1  0
  9 19  1  0
  9 20  1  0
 12 21  1  0
M  END
$$$$

     RDKit          3D

 21 21  0  0  0  0  0  0  0  0999 V2000
    4.2535    1.3182   -0.0963 C   0  0  0  0  0  0  0  0  0  0  0  0
    2.9629    0.6144   -0.0436 C   0  0  0  0  0  0  0  0  0  0  0  0
    2.8320   -0.6726    0.3576 N   0  0  0  0  0  0  0  0  0  0  0  0
    1.5650   -1.0330    0.3017 N   0  0  0  0  0  0  0  0  0  0  0  0
    0.8881    0.0247   -0.1353 C   0  0  0  0  0  0  0  0  0  0  0  0
   -0.5742    0.0573   -0.3459 C   0  0  0  0  0  0  0  0  0  0  0  0
   -1.1532    1.0924   -0.7621 O   0  0  0  0  0  0  0  0  0  0  0  0
   -1.3748   -1.0867   -0.0829 N   0  0  0  0  0  0  0  0  0  0  0  0
   -2.7883   -1.0302   -0.2943 C   0  0  0  0  0  0  0  0  0  0  0  0
   -3.4152   -0.0026    0.5341 C   0  0  0  0  0  0  0  0  0  0  0  0
   -2.7293    0.7006    1.3104 O   0  0  0  0  0  0  0  0  0  0  0  0
   -4.7804    0.2251    0.4874 O   0  0  0  0  0  0  0  0  0  0  0  0
    1.7335    1.0452   -0.3520 N   0  0  0  0  0  0  0  0  0  0  0  0
    4.3139    1.9388   -1.0344 H   0  0  0  0  0  0  0  0  0  0  0  0
    4.3994    2.0270    0.7371 H   0  0  0  0  0  0  0  0  0  0  0  0
    5.0964    0.6040   -0.1431 H   0  0  0  0  0  0  0  0  0  0  0  0
    1.1231   -1.9521    0.5405 H   0  0  0  0  0  0  0  0  0  0  0  0
   -0.8978   -1.9649    0.2681 H   0  0  0  0  0  0  0  0  0  0  0  0
   -3.0457   -0.9370   -1.3783 H   0  0  0  0  0  0  0  0  0  0  0  0
   -3.2195   -2.0167    0.0120 H   0  0  0  0  0  0  0  0  0  0  0  0
   -5.1894    1.0482    0.9342 H   0  0  0  0  0  0  0  0  0  0  0  0
  1  2  1  0
  2  3  2  0
  3  4  1  0
  4  5  1  0
  5  6  1  0
  6  7  2  0
  6  8  1  0
  8  9  1  0
  9 10  1  0
 10 11  2  0
 10 12  1  0
  5 13  2  0
 13  2  1  0
  1 14  1  0
  1 15  1  0
  1 16  1  0
  4 17  1  0
  8 18  1  0
  9 19  1  0
  9 20  1  0
 12 21  1  0
M  END
$$$$

     RDKit          3D

 21 21  0  0  0  0  0  0  0  0999 V2000
    3.8468    1.0437    1.2768 C   0  0  0  0  0  0  0  0  0  0  0  0
    2.9460    0.3403    0.3489 C   0  0  0  0  0  0  0  0  0  0  0  0
    3.3018   -0.4195   -0.7040 N   0  0  0  0  0  0  0  0  0  0  0  0
    2.1913   -0.8655   -1.2717 N   0  0  0  0  0  0  0  0  0  0  0  0
    1.1098   -0.4167   -0.6165 C   0  0  0  0  0  0  0  0  0  0  0  0
   -0.2729   -0.7072   -0.9612 C   0  0  0  0  0  0  0  0  0  0  0  0
   -0.5096   -1.4386   -1.9526 O   0  0  0  0  0  0  0  0  0  0  0  0
   -1.3786   -0.1993   -0.2244 N   0  0  0  0  0  0  0  0  0  0  0  0
   -2.7548   -0.4932   -0.5739 C   0  0  0  0  0  0  0  0  0  0  0  0
   -3.6299    0.1987    0.4059 C   0  0  0  0  0  0  0  0  0  0  0  0
   -3.1774    0.8995    1.3471 O   0  0  0  0  0  0  0  0  0  0  0  0
   -4.9993    0.0517    0.2570 O   0  0  0  0  0  0  0  0  0  0  0  0
    1.5913    0.3329    0.3904 N   0  0  0  0  0  0  0  0  0  0  0  0
    3.7258    2.1532    1.1502 H   0  0  0  0  0  0  0  0  0  0  0  0
    3.6405    0.7196    2.3156 H   0  0  0  0  0  0  0  0  0  0  0  0
    4.8939    0.7956    1.0626 H   0  0  0  0  0  0  0  0  0  0  0  0
    2.2041   -1.4825   -2.1162 H   0  0  0  0  0  0  0  0  0  0  0  0
   -1.1268    0.4107    0.6004 H   0  0  0  0  0  0  0  0  0  0  0  0
   -2.9559   -1.5689   -0.6451 H   0  0  0  0  0  0  0  0  0  0  0  0
   -3.0199   -0.0665   -1.5828 H   0  0  0  0  0  0  0  0  0  0  0  0
   -5.6261    0.7122    0.6709 H   0  0  0  0  0  0  0  0  0  0  0  0
  1  2  1  0
  2  3  2  0
  3  4  1  0
  4  5  1  0
  5  6  1  0
  6  7  2  0
  6  8  1  0
  8  9  1  0
  9 10  1  0
 10 11  2  0
 10 12  1  0
  5 13  2  0
 13  2  1  0
  1 14  1  0
  1 15  1  0
  1 16  1  0
  4 17  1  0
  8 18  1  0
  9 19  1  0
  9 20  1  0
 12 21  1  0
M  END
$$$$
