
     RDKit          3D

 25 25  0  0  0  0  0  0  0  0999 V2000
    4.6298   -1.0014   -0.0326 N   0  0  0  0  0  0  0  0  0  0  0  0
    3.3185   -0.4923    0.1643 C   0  0  0  0  0  0  0  0  0  0  0  0
    2.3322   -0.8620   -0.7492 C   0  0  0  0  0  0  0  0  0  0  0  0
    1.1187   -0.3897   -0.5654 N   0  0  0  0  0  0  0  0  0  0  0  0
    0.7852    0.4198    0.4440 C   0  0  0  0  0  0  0  0  0  0  0  0
   -0.5444    0.8821    0.5675 N   0  0  0  0  0  0  0  0  0  0  0  0
   -1.5415    0.4673   -0.3735 C   0  0  0  0  0  0  0  0  0  0  0  0
   -1.7995   -1.0136   -0.2619 C   0  0  0  0  0  0  0  0  0  0  0  0
   -2.7782   -1.3992   -1.1864 O   0  0  0  0  0  0  0  0  0  0  0  0
   -2.8267    1.2553   -0.2414 C   0  0  0  0  0  0  0  0  0  0  0  0
   -3.4090    1.1421    0.9910 O   0  0  0  0  0  0  0  0  0  0  0  0
    1.7668    0.7902    1.3566 C   0  0  0  0  0  0  0  0  0  0  0  0
    3.0019    0.3219    1.1869 N   0  0  0  0  0  0  0  0  0  0  0  0
    4.7297   -2.0081   -0.2813 H   0  0  0  0  0  0  0  0  0  0  0  0
    5.4877   -0.4203    0.0593 H   0  0  0  0  0  0  0  0  0  0  0  0
    2.6064   -1.5123   -1.5576 H   0  0  0  0  0  0  0  0  0  0  0  0
   -0.7515    1.5348    1.3752 H   0  0  0  0  0  0  0  0  0  0  0  0
   -1.1734    0.6192   -1.4330 H   0  0  0  0  0  0  0  0  0  0  0  0
   -0.8687   -1.5800   -0.4312 H   0  0  0  0  0  0  0  0  0  0  0  0
   -2.1831   -1.2964    0.7369 H   0  0  0  0  0  0  0  0  0  0  0  0
   -3.2893   -2.1522   -0.8264 H   0  0  0  0  0  0  0  0  0  0  0  0
   -3.5360    0.9364   -1.0304 H   0  0  0  0  0  0  0  0  0  0  0  0
   -2.6072    2.3287   -0.4196 H   0  0  0  0  0  0  0  0  0  0  0  0
   -3.9507    1.9794    1.1543 H   0  0  0  0  0  0  0  0  0  0  0  0
    1.4824    1.4502    2.1745 H   0  0  0  0  0  0  0  0  0  0  0  0
  1  2  1  0
  2  3  2  0
  3  4  1  0
  4  5  2  0
  5  6  1  0
  6  7  1  0
  7  8  1  0
  8  9  1  0
  7 10  1  0
 10 11  1  0
  5 12  1  0
 12 13  2  0
 13  2  1  0
  1 14  1  0
  1 15  1  0
  3 16  1  0
  6 17  1  0
  7 18  1  0
  8 19  1  0
  8 20  1  0
  9 21  1  0
 10 22  1  0
 10 23  1  0
 11 24  1  0
 12 25  1  0
M  END
$$$$

     RDKit          3D

 25 25  0  0  0  0  0  0  0  0999 V2000
    4.8021   -0.1094   -0.1322 N   0  0  0  0  0  0  0  0  0  0  0  0
    3.3921   -0.0748    0.0485 C   0  0  0  0  0  0  0  0  0  0  0  0
    2.8231    0.6583    1.0679 C   0  0  0  0  0  0  0  0  0  0  0  0
    1.4973    0.7086    1.2606 N   0  0  0  0  0  0  0  0  0  0  0  0
    0.6266    0.0293    0.4494 C   0  0  0  0  0  0  0  0  0  0  0  0
   -0.7668    0.0892    0.7015 N   0  0  0  0  0  0  0  0  0  0  0  0
   -1.7345   -0.5313   -0.1569 C   0  0  0  0  0  0  0  0  0  0  0  0
   -1.9079    0.1984   -1.4474 C   0  0  0  0  0  0  0  0  0  0  0  0
   -2.3478    1.5097   -1.2090 O   0  0  0  0  0  0  0  0  0  0  0  0
   -3.0893   -0.6343    0.5243 C   0  0  0  0  0  0  0  0  0  0  0  0
   -3.5437    0.6374    0.8546 O   0  0  0  0  0  0  0  0  0  0  0  0
    1.1982   -0.6999   -0.5640 C   0  0  0  0  0  0  0  0  0  0  0  0
    2.5518   -0.7467   -0.7552 N   0  0  0  0  0  0  0  0  0  0  0  0
    5.2848    0.1432   -1.0115 H   0  0  0  0  0  0  0  0  0  0  0  0
    5.3972   -0.4112    0.6792 H   0  0  0  0  0  0  0  0  0  0  0  0
    3.5254    1.1977    1.7109 H   0  0  0  0  0  0  0  0  0  0  0  0
   -1.1289    0.5991    1.5390 H   0  0  0  0  0  0  0  0  0  0  0  0
   -1.4077   -1.5853   -0.3780 H   0  0  0  0  0  0  0  0  0  0  0  0
   -2.6547   -0.3617   -2.0537 H   0  0  0  0  0  0  0  0  0  0  0  0
   -0.9675    0.2558   -2.0039 H   0  0  0  0  0  0  0  0  0  0  0  0
   -1.5751    2.0754   -0.9578 H   0  0  0  0  0  0  0  0  0  0  0  0
   -3.7824   -1.0812   -0.1945 H   0  0  0  0  0  0  0  0  0  0  0  0
   -2.9897   -1.2605    1.4286 H   0  0  0  0  0  0  0  0  0  0  0  0
   -3.7726    0.6654    1.8287 H   0  0  0  0  0  0  0  0  0  0  0  0
    0.5700   -1.2713   -1.2292 H   0  0  0  0  0  0  0  0  0  0  0  0
  1  2  1  0
  2  3  2  0
  3  4  1  0
  4  5  2  0
  5  6  1  0
  6  7  1  0
  7  8  1  0
  8  9  1  0
  7 10  1  0
 10 11  1  0
  5 12  1  0
 12 13  2  0
 13  2  1  0
  1 14  1  0
  1 15  1  0
  3 16  1  0
  6 17  1  0
  7 18  1  0
  8 19  1  0
  8 20  1  0
  9 21  1  0
 10 22  1  0
 10 23  1  0
 11 24  1  0
 12 25  1  0
M  END
$$$$

     RDKit          3D

 25 25  0  0  0  0  0  0  0  0999 V2000
    4.5849   -0.1394   -0.8218 N   0  0  0  0  0  0  0  0  0  0  0  0
    3.2431   -0.2211   -0.3572 C   0  0  0  0  0  0  0  0  0  0  0  0
    2.8983   -0.9340    0.7688 C   0  0  0  0  0  0  0  0  0  0  0  0
    1.6229   -0.9851    1.1718 N   0  0  0  0  0  0  0  0  0  0  0  0
    0.6054   -0.3528    0.5141 C   0  0  0  0  0  0  0  0  0  0  0  0
   -0.7259   -0.4410    0.9710 N   0  0  0  0  0  0  0  0  0  0  0  0
   -1.8970    0.1579    0.4432 C   0  0  0  0  0  0  0  0  0  0  0  0
   -1.9675    1.6457    0.4515 C   0  0  0  0  0  0  0  0  0  0  0  0
   -3.2206    1.9763   -0.1233 O   0  0  0  0  0  0  0  0  0  0  0  0
   -2.2991   -0.4951   -0.8564 C   0  0  0  0  0  0  0  0  0  0  0  0
   -2.5407   -1.8564   -0.5668 O   0  0  0  0  0  0  0  0  0  0  0  0
    0.9586    0.3454   -0.5932 C   0  0  0  0  0  0  0  0  0  0  0  0
    2.2464    0.4000   -1.0043 N   0  0  0  0  0  0  0  0  0  0  0  0
    5.0360    0.7726   -1.0348 H   0  0  0  0  0  0  0  0  0  0  0  0
    5.1702   -0.9895   -0.9674 H   0  0  0  0  0  0  0  0  0  0  0  0
    3.6869   -1.4397    1.3014 H   0  0  0  0  0  0  0  0  0  0  0  0
   -0.8172   -1.0658    1.8510 H   0  0  0  0  0  0  0  0  0  0  0  0
   -2.7435   -0.1543    1.1698 H   0  0  0  0  0  0  0  0  0  0  0  0
   -1.2135    2.2029   -0.0782 H   0  0  0  0  0  0  0  0  0  0  0  0
   -2.0478    1.9520    1.5280 H   0  0  0  0  0  0  0  0  0  0  0  0
   -3.9079    1.7487    0.5541 H   0  0  0  0  0  0  0  0  0  0  0  0
   -1.5590   -0.4802   -1.6498 H   0  0  0  0  0  0  0  0  0  0  0  0
   -3.2774   -0.0806   -1.1730 H   0  0  0  0  0  0  0  0  0  0  0  0
   -2.1017   -2.4563   -1.2026 H   0  0  0  0  0  0  0  0  0  0  0  0
    0.2659    0.8897   -1.2155 H   0  0  0  0  0  0  0  0  0  0  0  0
  1  2  1  0
  2  3  2  0
  3  4  1  0
  4  5  2  0
  5  6  1  0
  6  7  1  0
  7  8  1  0
  8  9  1  0
  7 10  1  0
 10 11  1  0
  5 12  1  0
 12 13  2  0
 13  2  1  0
  1 14  1  0
  1 15  1  0
  3 16  1  0
  6 17  1  0
  7 18  1  0
  8 19  1  0
  8 20  1  0
  9 21  1  0
 10 22  1  0
 10 23  1  0
 11 24  1  0
 12 25  1  0
M  END
$$$$

     RDKit          3D

 25 25  0  0  0  0  0  0  0  0999 V2000
    4.8076    0.2072   -0.6362 N   0  0  0  0  0  0  0  0  0  0  0  0
    3.4299    0.0483   -0.3138 C   0  0  0  0  0  0  0  0  0  0  0  0
    3.0620   -0.4925    0.8966 C   0  0  0  0  0  0  0  0  0  0  0  0
    1.7667   -0.6320    1.1782 N   0  0  0  0  0  0  0  0  0  0  0  0
    0.7662   -0.2708    0.3377 C   0  0  0  0  0  0  0  0  0  0  0  0
   -0.5841   -0.4810    0.7271 N   0  0  0  0  0  0  0  0  0  0  0  0
   -1.7421   -0.1024   -0.0042 C   0  0  0  0  0  0  0  0  0  0  0  0
   -1.9026    1.3941    0.0294 C   0  0  0  0  0  0  0  0  0  0  0  0
   -3.0265    1.7967   -0.6881 O   0  0  0  0  0  0  0  0  0  0  0  0
   -3.0012   -0.7038    0.6152 C   0  0  0  0  0  0  0  0  0  0  0  0
   -2.9062   -2.1011    0.6106 O   0  0  0  0  0  0  0  0  0  0  0  0
    1.1464    0.2683   -0.8700 C   0  0  0  0  0  0  0  0  0  0  0  0
    2.4649    0.4187   -1.1747 N   0  0  0  0  0  0  0  0  0  0  0  0
    5.3100   -0.3696   -1.3409 H   0  0  0  0  0  0  0  0  0  0  0  0
    5.3448    0.9369   -0.1444 H   0  0  0  0  0  0  0  0  0  0  0  0
    3.8638   -0.7817    1.5696 H   0  0  0  0  0  0  0  0  0  0  0  0
   -0.7443   -0.9692    1.6568 H   0  0  0  0  0  0  0  0  0  0  0  0
   -1.6588   -0.4461   -1.0608 H   0  0  0  0  0  0  0  0  0  0  0  0
   -2.0962    1.7540    1.0879 H   0  0  0  0  0  0  0  0  0  0  0  0
   -1.0081    1.9044   -0.3323 H   0  0  0  0  0  0  0  0  0  0  0  0
   -3.3608    1.1196   -1.3046 H   0  0  0  0  0  0  0  0  0  0  0  0
   -3.8816   -0.3586    0.0169 H   0  0  0  0  0  0  0  0  0  0  0  0
   -3.0995   -0.2875    1.6320 H   0  0  0  0  0  0  0  0  0  0  0  0
   -3.3598   -2.4108   -0.2224 H   0  0  0  0  0  0  0  0  0  0  0  0
    0.4096    0.5590   -1.5758 H   0  0  0  0  0  0  0  0  0  0  0  0
  1  2  1  0
  2  3  2  0
  3  4  1  0
  4  5  2  0
  5  6  1  0
  6  7  1  0
  7  8  1  0
  8  9  1  0
  7 10  1  0
 10 11  1  0
  5 12  1  0
 12 13  2  0
 13  2  1  0
  1 14  1  0
  1 15  1  0
  3 16  1  0
  6 17  1  0
  7 18  1  0
  8 19  1  0
  8 20  1  0
  9 21  1  0
 10 22  1  0
 10 23  1  0
 11 24  1  0
 12 25  1  0
M  END
$$$$

     RDKit          3D

 25 25  0  0  0  0  0  0  0  0999 V2000
    4.4177    0.6668    0.9577 N   0  0  0  0  0  0  0  0  0  0  0  0
    3.1344    0.5371    0.3630 C   0  0  0  0  0  0  0  0  0  0  0  0
    2.0219    0.1369    1.0707 C   0  0  0  0  0  0  0  0  0  0  0  0
    0.8336    0.0333    0.4501 N   0  0  0  0  0  0  0  0  0  0  0  0
    0.6549    0.3009   -0.8467 C   0  0  0  0  0  0  0  0  0  0  0  0
   -0.6119    0.1861   -1.4902 N   0  0  0  0  0  0  0  0  0  0  0  0
   -1.7931   -0.2199   -0.8100 C   0  0  0  0  0  0  0  0  0  0  0  0
   -2.1189    0.7525    0.3191 C   0  0  0  0  0  0  0  0  0  0  0  0
   -3.2957    0.3288    0.9786 O   0  0  0  0  0  0  0  0  0  0  0  0
   -1.7025   -1.6042   -0.2176 C   0  0  0  0  0  0  0  0  0  0  0  0
   -2.9180   -1.8724    0.4142 O   0  0  0  0  0  0  0  0  0  0  0  0
    1.7622    0.7011   -1.5591 C   0  0  0  0  0  0  0  0  0  0  0  0
    2.9524    0.8085   -0.9530 N   0  0  0  0  0  0  0  0  0  0  0  0
    5.1020    1.3276    0.5374 H   0  0  0  0  0  0  0  0  0  0  0  0
    4.7102    0.1353    1.7926 H   0  0  0  0  0  0  0  0  0  0  0  0
    2.1586   -0.0820    2.1229 H   0  0  0  0  0  0  0  0  0  0  0  0
   -0.6743    0.4103   -2.5060 H   0  0  0  0  0  0  0  0  0  0  0  0
   -2.6465   -0.2239   -1.5141 H   0  0  0  0  0  0  0  0  0  0  0  0
   -2.2623    1.7837   -0.0558 H   0  0  0  0  0  0  0  0  0  0  0  0
   -1.3295    0.7664    1.0946 H   0  0  0  0  0  0  0  0  0  0  0  0
   -4.0641    0.3857    0.3360 H   0  0  0  0  0  0  0  0  0  0  0  0
   -0.9176   -1.5975    0.5786 H   0  0  0  0  0  0  0  0  0  0  0  0
   -1.5469   -2.3749   -0.9765 H   0  0  0  0  0  0  0  0  0  0  0  0
   -3.5726   -2.2280   -0.2347 H   0  0  0  0  0  0  0  0  0  0  0  0
    1.7059    0.9416   -2.6317 H   0  0  0  0  0  0  0  0  0  0  0  0
  1  2  1  0
  2  3  2  0
  3  4  1  0
  4  5  2  0
  5  6  1  0
  6  7  1  0
  7  8  1  0
  8  9  1  0
  7 10  1  0
 10 11  1  0
  5 12  1  0
 12 13  2  0
 13  2  1  0
  1 14  1  0
  1 15  1  0
  3 16  1  0
  6 17  1  0
  7 18  1  0
  8 19  1  0
  8 20  1  0
  9 21  1  0
 10 22  1  0
 10 23  1  0
 11 24  1  0
 12 25  1  0
M  END
$$$$

     RDKit          3D

 25 25  0  0  0  0  0  0  0  0999 V2000
    4.7336   -0.1330   -0.0456 N   0  0  0  0  0  0  0  0  0  0  0  0
    3.3319   -0.2508    0.1827 C   0  0  0  0  0  0  0  0  0  0  0  0
    2.4577    0.1710   -0.8057 C   0  0  0  0  0  0  0  0  0  0  0  0
    1.1305    0.0719   -0.6179 N   0  0  0  0  0  0  0  0  0  0  0  0
    0.6240   -0.4331    0.5205 C   0  0  0  0  0  0  0  0  0  0  0  0
   -0.7696   -0.5263    0.6929 N   0  0  0  0  0  0  0  0  0  0  0  0
   -1.7181   -0.0969   -0.3018 C   0  0  0  0  0  0  0  0  0  0  0  0
   -3.1318   -0.3748    0.2016 C   0  0  0  0  0  0  0  0  0  0  0  0
   -3.2316   -1.7553    0.4185 O   0  0  0  0  0  0  0  0  0  0  0  0
   -1.6119    1.3985   -0.5296 C   0  0  0  0  0  0  0  0  0  0  0  0
   -2.5595    1.7568   -1.5051 O   0  0  0  0  0  0  0  0  0  0  0  0
    1.4942   -0.8531    1.5048 C   0  0  0  0  0  0  0  0  0  0  0  0
    2.8244   -0.7562    1.3222 N   0  0  0  0  0  0  0  0  0  0  0  0
    5.1277    0.6072   -0.6680 H   0  0  0  0  0  0  0  0  0  0  0  0
    5.4391   -0.7809    0.3979 H   0  0  0  0  0  0  0  0  0  0  0  0
    2.8874    0.5744   -1.7144 H   0  0  0  0  0  0  0  0  0  0  0  0
   -1.1174   -0.9301    1.5947 H   0  0  0  0  0  0  0  0  0  0  0  0
   -1.5930   -0.6140   -1.2787 H   0  0  0  0  0  0  0  0  0  0  0  0
   -3.8832   -0.0272   -0.5311 H   0  0  0  0  0  0  0  0  0  0  0  0
   -3.2959    0.1510    1.1565 H   0  0  0  0  0  0  0  0  0  0  0  0
   -3.2068   -2.2218   -0.4633 H   0  0  0  0  0  0  0  0  0  0  0  0
   -0.6136    1.6368   -0.9303 H   0  0  0  0  0  0  0  0  0  0  0  0
   -1.7832    1.9272    0.4266 H   0  0  0  0  0  0  0  0  0  0  0  0
   -2.6536    2.7315   -1.4796 H   0  0  0  0  0  0  0  0  0  0  0  0
    1.1188   -1.2728    2.4521 H   0  0  0  0  0  0  0  0  0  0  0  0
  1  2  1  0
  2  3  2  0
  3  4  1  0
  4  5  2  0
  5  6  1  0
  6  7  1  0
  7  8  1  0
  8  9  1  0
  7 10  1  0
 10 11  1  0
  5 12  1  0
 12 13  2  0
 13  2  1  0
  1 14  1  0
  1 15  1  0
  3 16  1  0
  6 17  1  0
  7 18  1  0
  8 19  1  0
  8 20  1  0
  9 21  1  0
 10 22  1  0
 10 23  1  0
 11 24  1  0
 12 25  1  0
M  END
$$$$

     RDKit          3D

 25 25  0  0  0  0  0  0  0  0999 V2000
    4.7766    0.5149   -0.6962 N   0  0  0  0  0  0  0  0  0  0  0  0
    3.3981    0.2609   -0.4159 C   0  0  0  0  0  0  0  0  0  0  0  0
    3.0002   -0.2568    0.7986 C   0  0  0  0  0  0  0  0  0  0  0  0
    1.7110   -0.5023    1.0823 N   0  0  0  0  0  0  0  0  0  0  0  0
    0.7163   -0.2503    0.1755 C   0  0  0  0  0  0  0  0  0  0  0  0
   -0.6344   -0.5478    0.5058 N   0  0  0  0  0  0  0  0  0  0  0  0
   -1.7211   -0.2345   -0.3517 C   0  0  0  0  0  0  0  0  0  0  0  0
   -1.9826    1.2457   -0.3212 C   0  0  0  0  0  0  0  0  0  0  0  0
   -3.0465    1.4938   -1.1885 O   0  0  0  0  0  0  0  0  0  0  0  0
   -2.9559   -1.0318    0.0356 C   0  0  0  0  0  0  0  0  0  0  0  0
   -2.6017   -2.3945   -0.0902 O   0  0  0  0  0  0  0  0  0  0  0  0
    1.1153    0.2630   -1.0296 C   0  0  0  0  0  0  0  0  0  0  0  0
    2.4302    0.5110   -1.3115 N   0  0  0  0  0  0  0  0  0  0  0  0
    5.5263   -0.1989   -0.4714 H   0  0  0  0  0  0  0  0  0  0  0  0
    5.0666    1.4060   -1.1261 H   0  0  0  0  0  0  0  0  0  0  0  0
    3.7988   -0.4576    1.5228 H   0  0  0  0  0  0  0  0  0  0  0  0
   -0.8710   -1.0248    1.4287 H   0  0  0  0  0  0  0  0  0  0  0  0
   -1.5147   -0.5070   -1.4174 H   0  0  0  0  0  0  0  0  0  0  0  0
   -1.0779    1.7985   -0.5848 H   0  0  0  0  0  0  0  0  0  0  0  0
   -2.2509    1.5435    0.7305 H   0  0  0  0  0  0  0  0  0  0  0  0
   -3.6121    2.2360   -0.9148 H   0  0  0  0  0  0  0  0  0  0  0  0
   -3.8184   -0.7844   -0.6047 H   0  0  0  0  0  0  0  0  0  0  0  0
   -3.2405   -0.8902    1.0902 H   0  0  0  0  0  0  0  0  0  0  0  0
   -2.5678   -2.6548   -1.0500 H   0  0  0  0  0  0  0  0  0  0  0  0
    0.3563    0.4623   -1.7870 H   0  0  0  0  0  0  0  0  0  0  0  0
  1  2  1  0
  2  3  2  0
  3  4  1  0
  4  5  2  0
  5  6  1  0
  6  7  1  0
  7  8  1  0
  8  9  1  0
  7 10  1  0
 10 11  1  0
  5 12  1  0
 12 13  2  0
 13  2  1  0
  1 14  1  0
  1 15  1  0
  3 16  1  0
  6 17  1  0
  7 18  1  0
  8 19  1  0
  8 20  1  0
  9 21  1  0
 10 22  1  0
 10 23  1  0
 11 24  1  0
 12 25  1  0
M  END
$$$$

     RDKit          3D

 25 25  0  0  0  0  0  0  0  0999 V2000
    4.7573    0.1925   -0.1570 N   0  0  0  0  0  0  0  0  0  0  0  0
    3.3506    0.2525    0.0218 C   0  0  0  0  0  0  0  0  0  0  0  0
    2.8181    0.7339    1.2178 C   0  0  0  0  0  0  0  0  0  0  0  0
    1.4979    0.7590    1.3098 N   0  0  0  0  0  0  0  0  0  0  0  0
    0.6391    0.3592    0.3466 C   0  0  0  0  0  0  0  0  0  0  0  0
   -0.7521    0.4664    0.5609 N   0  0  0  0  0  0  0  0  0  0  0  0
   -1.7807   -0.0041   -0.3181 C   0  0  0  0  0  0  0  0  0  0  0  0
   -1.9945   -1.4935   -0.2026 C   0  0  0  0  0  0  0  0  0  0  0  0
   -0.8997   -2.2701   -0.4834 O   0  0  0  0  0  0  0  0  0  0  0  0
   -3.1217    0.6350    0.0737 C   0  0  0  0  0  0  0  0  0  0  0  0
   -2.9653    2.0071   -0.0450 O   0  0  0  0  0  0  0  0  0  0  0  0
    1.2077   -0.1040   -0.8079 C   0  0  0  0  0  0  0  0  0  0  0  0
    2.5537   -0.1561   -0.9657 N   0  0  0  0  0  0  0  0  0  0  0  0
    5.4148   -0.1858    0.5608 H   0  0  0  0  0  0  0  0  0  0  0  0
    5.1862    0.5457   -1.0616 H   0  0  0  0  0  0  0  0  0  0  0  0
    3.5063    1.0500    1.9790 H   0  0  0  0  0  0  0  0  0  0  0  0
   -1.0764    0.9440    1.4661 H   0  0  0  0  0  0  0  0  0  0  0  0
   -1.5681    0.2499   -1.3865 H   0  0  0  0  0  0  0  0  0  0  0  0
   -2.3099   -1.6985    0.8522 H   0  0  0  0  0  0  0  0  0  0  0  0
   -2.8478   -1.8082   -0.8762 H   0  0  0  0  0  0  0  0  0  0  0  0
   -1.2306   -3.1629   -0.7996 H   0  0  0  0  0  0  0  0  0  0  0  0
   -3.2560    0.3992    1.1431 H   0  0  0  0  0  0  0  0  0  0  0  0
   -3.9350    0.2720   -0.5666 H   0  0  0  0  0  0  0  0  0  0  0  0
   -3.7784    2.4374    0.2933 H   0  0  0  0  0  0  0  0  0  0  0  0
    0.5846   -0.4208   -1.6261 H   0  0  0  0  0  0  0  0  0  0  0  0
  1  2  1  0
  2  3  2  0
  3  4  1  0
  4  5  2  0
  5  6  1  0
  6  7  1  0
  7  8  1  0
  8  9  1  0
  7 10  1  0
 10 11  1  0
  5 12  1  0
 12 13  2  0
 13  2  1  0
  1 14  1  0
  1 15  1  0
  3 16  1  0
  6 17  1  0
  7 18  1  0
  8 19  1  0
  8 20  1  0
  9 21  1  0
 10 22  1  0
 10 23  1  0
 11 24  1  0
 12 25  1  0
M  END
$$$$
