
     RDKit          3D

 29 29  0  0  0  0  0  0  0  0999 V2000
    4.3602    0.4024   -0.0708 C   0  0  0  0  0  0  0  0  0  0  0  0
    3.2668    1.1065   -0.4712 O   0  0  0  0  0  0  0  0  0  0  0  0
    2.0733    0.6935    0.0022 C   0  0  0  0  0  0  0  0  0  0  0  0
    1.6508   -0.6917   -0.3340 C   0  0  1  0  0  0  0  0  0  0  0  0
    2.5393   -1.6952    0.1876 N   0  0  0  0  0  0  0  0  0  0  0  0
    0.2548   -0.9785    0.1551 C   0  0  0  0  0  0  0  0  0  0  0  0
    0.0690   -1.9658    0.8870 O   0  0  0  0  0  0  0  0  0  0  0  0
   -0.8294   -0.1530   -0.2013 N   0  0  0  0  0  0  0  0  0  0  0  0
   -2.1898   -0.3925    0.2473 C   0  0  1  0  0  0  0  0  0  0  0  0
   -2.7725    0.8112    0.9358 C   0  0  0  0  0  0  0  0  0  0  0  0
   -3.4592    1.5329   -0.1835 C   0  0  0  0  0  0  0  0  0  0  0  0
   -3.2141    0.8305   -1.3495 O   0  0  0  0  0  0  0  0  0  0  0  0
   -3.0786   -0.5164   -0.9626 C   0  0  0  0  0  0  0  0  0  0  0  0
    5.2901    0.8982   -0.5101 H   0  0  0  0  0  0  0  0  0  0  0  0
    4.4856    0.2936    1.0240 H   0  0  0  0  0  0  0  0  0  0  0  0
    4.4134   -0.6377   -0.4948 H   0  0  0  0  0  0  0  0  0  0  0  0
    1.2852    1.4369   -0.3434 H   0  0  0  0  0  0  0  0  0  0  0  0
    2.1084    0.7660    1.1367 H   0  0  0  0  0  0  0  0  0  0  0  0
    1.6259   -0.7636   -1.4683 H   0  0  0  0  0  0  0  0  0  0  0  0
    2.4261   -1.7174    1.2254 H   0  0  0  0  0  0  0  0  0  0  0  0
    2.4402   -2.6124   -0.2578 H   0  0  0  0  0  0  0  0  0  0  0  0
   -0.6295    0.6645   -0.8168 H   0  0  0  0  0  0  0  0  0  0  0  0
   -2.2776   -1.2716    0.8831 H   0  0  0  0  0  0  0  0  0  0  0  0
   -3.5334    0.4516    1.6603 H   0  0  0  0  0  0  0  0  0  0  0  0
   -2.0278    1.4193    1.4753 H   0  0  0  0  0  0  0  0  0  0  0  0
   -3.1037    2.5660   -0.3162 H   0  0  0  0  0  0  0  0  0  0  0  0
   -4.5665    1.5916   -0.0591 H   0  0  0  0  0  0  0  0  0  0  0  0
   -4.0502   -0.9840   -0.7386 H   0  0  0  0  0  0  0  0  0  0  0  0
   -2.5569   -1.0847   -1.7590 H   0  0  0  0  0  0  0  0  0  0  0  0
  1  2  1  0
  2  3  1  0
  3  4  1  0
  4  5  1  0
  4  6  1  0
  6  7  2  0
  6  8  1  0
  8  9  1  0
  9 10  1  0
 10 11  1  0
 11 12  1  0
 12 13  1  0
 13  9  1  0
  1 14  1  0
  1 15  1  0
  1 16  1  0
  3 17  1  0
  3 18  1  0
  4 19  1  6
  5 20  1  0
  5 21  1  0
  8 22  1  0
  9 23  1  1
 10 24  1  0
 10 25  1  0
 11 26  1  0
 11 27  1  0
 13 28  1  0
 13 29  1  0
M  END
$$$$

     RDKit          3D

 29 29  0  0  0  0  0  0  0  0999 V2000
    3.2721   -0.6201    0.6728 C   0  0  0  0  0  0  0  0  0  0  0  0
    2.9872    0.6945    0.9067 O   0  0  0  0  0  0  0  0  0  0  0  0
    2.7885    1.4906   -0.1805 C   0  0  0  0  0  0  0  0  0  0  0  0
    1.6738    1.1314   -1.0894 C   0  0  1  0  0  0  0  0  0  0  0  0
    1.7518   -0.1391   -1.7282 N   0  0  0  0  0  0  0  0  0  0  0  0
    0.3600    1.1709   -0.3489 C   0  0  0  0  0  0  0  0  0  0  0  0
    0.0598    2.1886    0.2896 O   0  0  0  0  0  0  0  0  0  0  0  0
   -0.5392    0.0760   -0.3642 N   0  0  0  0  0  0  0  0  0  0  0  0
   -1.7858    0.0789    0.3223 C   0  0  1  0  0  0  0  0  0  0  0  0
   -2.8947   -0.0463   -0.7211 C   0  0  0  0  0  0  0  0  0  0  0  0
   -3.8077   -1.0619   -0.0701 C   0  0  0  0  0  0  0  0  0  0  0  0
   -2.8635   -1.9856    0.4231 O   0  0  0  0  0  0  0  0  0  0  0  0
   -2.0332   -1.1431    1.1608 C   0  0  0  0  0  0  0  0  0  0  0  0
    3.4599   -1.1768    1.6500 H   0  0  0  0  0  0  0  0  0  0  0  0
    4.1294   -0.7643   -0.0018 H   0  0  0  0  0  0  0  0  0  0  0  0
    2.3920   -1.1556    0.2045 H   0  0  0  0  0  0  0  0  0  0  0  0
    3.7489    1.4509   -0.7823 H   0  0  0  0  0  0  0  0  0  0  0  0
    2.6937    2.5746    0.1300 H   0  0  0  0  0  0  0  0  0  0  0  0
    1.5374    1.8984   -1.9023 H   0  0  0  0  0  0  0  0  0  0  0  0
    2.7144   -0.3962   -2.0451 H   0  0  0  0  0  0  0  0  0  0  0  0
    1.0250   -0.3149   -2.4304 H   0  0  0  0  0  0  0  0  0  0  0  0
   -0.2563   -0.7618   -0.9093 H   0  0  0  0  0  0  0  0  0  0  0  0
   -1.9958    1.0143    0.8729 H   0  0  0  0  0  0  0  0  0  0  0  0
   -3.3814    0.9133   -0.9283 H   0  0  0  0  0  0  0  0  0  0  0  0
   -2.5087   -0.5252   -1.6545 H   0  0  0  0  0  0  0  0  0  0  0  0
   -4.2881   -0.5739    0.8063 H   0  0  0  0  0  0  0  0  0  0  0  0
   -4.5115   -1.5307   -0.7619 H   0  0  0  0  0  0  0  0  0  0  0  0
   -2.6087   -0.8209    2.0573 H   0  0  0  0  0  0  0  0  0  0  0  0
   -1.1193   -1.6658    1.4649 H   0  0  0  0  0  0  0  0  0  0  0  0
  1  2  1  0
  2  3  1  0
  3  4  1  0
  4  5  1  0
  4  6  1  0
  6  7  2  0
  6  8  1  0
  8  9  1  0
  9 10  1  0
 10 11  1  0
 11 12  1  0
 12 13  1  0
 13  9  1  0
  1 14  1  0
  1 15  1  0
  1 16  1  0
  3 17  1  0
  3 18  1  0
  4 19  1  6
  5 20  1  0
  5 21  1  0
  8 22  1  0
  9 23  1  1
 10 24  1  0
 10 25  1  0
 11 26  1  0
 11 27  1  0
 13 28  1  0
 13 29  1  0
M  END
$$$$

     RDKit          3D

 29 29  0  0  0  0  0  0  0  0999 V2000
    4.4045    0.0364   -0.7718 C   0  0  0  0  0  0  0  0  0  0  0  0
    3.2952   -0.4630   -1.3708 O   0  0  0  0  0  0  0  0  0  0  0  0
    2.0892   -0.1085   -0.8831 C   0  0  0  0  0  0  0  0  0  0  0  0
    1.7850   -0.4502    0.5253 C   0  0  1  0  0  0  0  0  0  0  0  0
    2.6627    0.1187    1.4958 N   0  0  0  0  0  0  0  0  0  0  0  0
    0.4105    0.0191    0.8376 C   0  0  0  0  0  0  0  0  0  0  0  0
    0.1959    0.7829    1.8160 O   0  0  0  0  0  0  0  0  0  0  0  0
   -0.7256   -0.3529    0.0725 N   0  0  0  0  0  0  0  0  0  0  0  0
   -2.0346    0.1237    0.4098 C   0  0  1  0  0  0  0  0  0  0  0  0
   -2.7235    0.8347   -0.7321 C   0  0  0  0  0  0  0  0  0  0  0  0
   -4.1610    0.4036   -0.5457 C   0  0  0  0  0  0  0  0  0  0  0  0
   -4.2137   -0.4326    0.5384 O   0  0  0  0  0  0  0  0  0  0  0  0
   -2.9819   -1.0645    0.6209 C   0  0  0  0  0  0  0  0  0  0  0  0
    4.3948    1.1648   -0.8267 H   0  0  0  0  0  0  0  0  0  0  0  0
    4.6280   -0.3361    0.2331 H   0  0  0  0  0  0  0  0  0  0  0  0
    5.2917   -0.2473   -1.4089 H   0  0  0  0  0  0  0  0  0  0  0  0
    1.2950   -0.5357   -1.5292 H   0  0  0  0  0  0  0  0  0  0  0  0
    1.9752    1.0100   -0.9929 H   0  0  0  0  0  0  0  0  0  0  0  0
    1.8632   -1.5683    0.6306 H   0  0  0  0  0  0  0  0  0  0  0  0
    2.4075   -0.1559    2.4578 H   0  0  0  0  0  0  0  0  0  0  0  0
    2.7274    1.1635    1.3676 H   0  0  0  0  0  0  0  0  0  0  0  0
   -0.5716   -0.9829   -0.7399 H   0  0  0  0  0  0  0  0  0  0  0  0
   -2.0624    0.7776    1.2837 H   0  0  0  0  0  0  0  0  0  0  0  0
   -2.3261    0.4738   -1.7154 H   0  0  0  0  0  0  0  0  0  0  0  0
   -2.6388    1.9280   -0.6475 H   0  0  0  0  0  0  0  0  0  0  0  0
   -4.8271    1.2790   -0.3439 H   0  0  0  0  0  0  0  0  0  0  0  0
   -4.5363   -0.1576   -1.4397 H   0  0  0  0  0  0  0  0  0  0  0  0
   -2.7778   -1.5212    1.5870 H   0  0  0  0  0  0  0  0  0  0  0  0
   -2.8453   -1.7391   -0.2479 H   0  0  0  0  0  0  0  0  0  0  0  0
  1  2  1  0
  2  3  1  0
  3  4  1  0
  4  5  1  0
  4  6  1  0
  6  7  2  0
  6  8  1  0
  8  9  1  0
  9 10  1  0
 10 11  1  0
 11 12  1  0
 12 13  1  0
 13  9  1  0
  1 14  1  0
  1 15  1  0
  1 16  1  0
  3 17  1  0
  3 18  1  0
  4 19  1  6
  5 20  1  0
  5 21  1  0
  8 22  1  0
  9 23  1  1
 10 24  1  0
 10 25  1  0
 11 26  1  0
 11 27  1  0
 13 28  1  0
 13 29  1  0
M  END
$$$$

     RDKit          3D

 29 29  0  0  0  0  0  0  0  0999 V2000
    3.0104   -0.4550    2.2016 C   0  0  0  0  0  0  0  0  0  0  0  0
    2.3828   -1.0285    1.0921 O   0  0  0  0  0  0  0  0  0  0  0  0
    2.3595   -0.0782    0.0956 C   0  0  0  0  0  0  0  0  0  0  0  0
    1.7002   -0.5774   -1.1713 C   0  0  1  0  0  0  0  0  0  0  0  0
    2.3651   -1.7180   -1.7246 N   0  0  0  0  0  0  0  0  0  0  0  0
    0.2617   -0.8842   -0.9560 C   0  0  0  0  0  0  0  0  0  0  0  0
   -0.2368   -2.0043   -1.2401 O   0  0  0  0  0  0  0  0  0  0  0  0
   -0.6520    0.0548   -0.4181 N   0  0  0  0  0  0  0  0  0  0  0  0
   -2.0167   -0.1185   -0.1722 C   0  0  1  0  0  0  0  0  0  0  0  0
   -2.5922    0.2636    1.1242 C   0  0  0  0  0  0  0  0  0  0  0  0
   -2.9643    1.7168    0.9285 C   0  0  0  0  0  0  0  0  0  0  0  0
   -2.6808    2.0288   -0.3982 O   0  0  0  0  0  0  0  0  0  0  0  0
   -2.7652    0.8386   -1.1193 C   0  0  0  0  0  0  0  0  0  0  0  0
    3.0848   -1.1248    3.0584 H   0  0  0  0  0  0  0  0  0  0  0  0
    2.4879    0.4810    2.5214 H   0  0  0  0  0  0  0  0  0  0  0  0
    4.0465   -0.1346    1.9402 H   0  0  0  0  0  0  0  0  0  0  0  0
    3.4035    0.2084   -0.1345 H   0  0  0  0  0  0  0  0  0  0  0  0
    1.8483    0.8144    0.4607 H   0  0  0  0  0  0  0  0  0  0  0  0
    1.7927    0.2572   -1.9158 H   0  0  0  0  0  0  0  0  0  0  0  0
    2.5712   -2.4636   -1.0536 H   0  0  0  0  0  0  0  0  0  0  0  0
    3.1664   -1.4658   -2.3453 H   0  0  0  0  0  0  0  0  0  0  0  0
   -0.2379    1.0064   -0.1746 H   0  0  0  0  0  0  0  0  0  0  0  0
   -2.3515   -1.1316   -0.4561 H   0  0  0  0  0  0  0  0  0  0  0  0
   -2.0094    0.0675    2.0179 H   0  0  0  0  0  0  0  0  0  0  0  0
   -3.5565   -0.2877    1.2522 H   0  0  0  0  0  0  0  0  0  0  0  0
   -4.0450    1.9079    1.0821 H   0  0  0  0  0  0  0  0  0  0  0  0
   -2.4252    2.3725    1.6385 H   0  0  0  0  0  0  0  0  0  0  0  0
   -3.7866    0.5079   -1.2977 H   0  0  0  0  0  0  0  0  0  0  0  0
   -2.1610    0.9465   -2.0520 H   0  0  0  0  0  0  0  0  0  0  0  0
  1  2  1  0
  2  3  1  0
  3  4  1  0
  4  5  1  0
  4  6  1  0
  6  7  2  0
  6  8  1  0
  8  9  1  0
  9 10  1  0
 10 11  1  0
 11 12  1  0
 12 13  1  0
 13  9  1  0
  1 14  1  0
  1 15  1  0
  1 16  1  0
  3 17  1  0
  3 18  1  0
  4 19  1  6
  5 20  1  0
  5 21  1  0
  8 22  1  0
  9 23  1  6
 10 24  1  0
 10 25  1  0
 11 26  1  0
 11 27  1  0
 13 28  1  0
 13 29  1  0
M  END
$$$$

     RDKit          3D

 29 29  0  0  0  0  0  0  0  0999 V2000
    3.9088    1.5375   -0.3374 C   0  0  0  0  0  0  0  0  0  0  0  0
    3.6520    0.5801    0.6074 O   0  0  0  0  0  0  0  0  0  0  0  0
    2.3541    0.1556    0.6657 C   0  0  0  0  0  0  0  0  0  0  0  0
    1.8615   -0.4562   -0.6257 C   0  0  1  0  0  0  0  0  0  0  0  0
    2.6951   -1.5997   -0.9347 N   0  0  0  0  0  0  0  0  0  0  0  0
    0.4615   -0.9311   -0.4943 C   0  0  0  0  0  0  0  0  0  0  0  0
    0.1737   -2.1379   -0.6468 O   0  0  0  0  0  0  0  0  0  0  0  0
   -0.6147   -0.0395   -0.1900 N   0  0  0  0  0  0  0  0  0  0  0  0
   -1.9819   -0.4068   -0.0461 C   0  0  1  0  0  0  0  0  0  0  0  0
   -2.5733   -0.0193    1.2923 C   0  0  0  0  0  0  0  0  0  0  0  0
   -4.0592   -0.0136    0.9007 C   0  0  0  0  0  0  0  0  0  0  0  0
   -4.0467    0.6544   -0.2932 O   0  0  0  0  0  0  0  0  0  0  0  0
   -2.9044    0.3457   -0.9834 C   0  0  0  0  0  0  0  0  0  0  0  0
    3.6892    1.2205   -1.3563 H   0  0  0  0  0  0  0  0  0  0  0  0
    5.0011    1.7964   -0.2537 H   0  0  0  0  0  0  0  0  0  0  0  0
    3.3850    2.4970   -0.0625 H   0  0  0  0  0  0  0  0  0  0  0  0
    1.7013    1.0408    0.8614 H   0  0  0  0  0  0  0  0  0  0  0  0
    2.2026   -0.5366    1.5108 H   0  0  0  0  0  0  0  0  0  0  0  0
    1.9145    0.2267   -1.4737 H   0  0  0  0  0  0  0  0  0  0  0  0
    2.2957   -2.0700   -1.7840 H   0  0  0  0  0  0  0  0  0  0  0  0
    2.6812   -2.2221   -0.0991 H   0  0  0  0  0  0  0  0  0  0  0  0
   -0.3592    0.9630   -0.0657 H   0  0  0  0  0  0  0  0  0  0  0  0
   -2.1852   -1.4776   -0.1893 H   0  0  0  0  0  0  0  0  0  0  0  0
   -2.3927   -0.7559    2.0749 H   0  0  0  0  0  0  0  0  0  0  0  0
   -2.3412    1.0245    1.5687 H   0  0  0  0  0  0  0  0  0  0  0  0
   -4.4309   -1.0361    0.7604 H   0  0  0  0  0  0  0  0  0  0  0  0
   -4.6370    0.5488    1.6742 H   0  0  0  0  0  0  0  0  0  0  0  0
   -2.3792    1.3229   -1.1962 H   0  0  0  0  0  0  0  0  0  0  0  0
   -3.0716   -0.2112   -1.9277 H   0  0  0  0  0  0  0  0  0  0  0  0
  1  2  1  0
  2  3  1  0
  3  4  1  0
  4  5  1  0
  4  6  1  0
  6  7  2  0
  6  8  1  0
  8  9  1  0
  9 10  1  0
 10 11  1  0
 11 12  1  0
 12 13  1  0
 13  9  1  0
  1 14  1  0
  1 15  1  0
  1 16  1  0
  3 17  1  0
  3 18  1  0
  4 19  1  6
  5 20  1  0
  5 21  1  0
  8 22  1  0
  9 23  1  6
 10 24  1  0
 10 25  1  0
 11 26  1  0
 11 27  1  0
 13 28  1  0
 13 29  1  0
M  END
$$$$

     RDKit          3D

 29 29  0  0  0  0  0  0  0  0999 V2000
    3.0905    0.1971   -2.5790 C   0  0  0  0  0  0  0  0  0  0  0  0
    2.3042    0.0092   -1.4466 O   0  0  0  0  0  0  0  0  0  0  0  0
    2.4465   -1.3082   -1.0217 C   0  0  0  0  0  0  0  0  0  0  0  0
    1.5762   -1.4726    0.2115 C   0  0  1  0  0  0  0  0  0  0  0  0
    2.0508   -0.5384    1.2070 N   0  0  0  0  0  0  0  0  0  0  0  0
    0.1591   -1.2066   -0.1484 C   0  0  0  0  0  0  0  0  0  0  0  0
   -0.4761   -1.8762   -0.9846 O   0  0  0  0  0  0  0  0  0  0  0  0
   -0.5115   -0.1284    0.4958 N   0  0  0  0  0  0  0  0  0  0  0  0
   -1.8815    0.1944    0.2040 C   0  0  1  0  0  0  0  0  0  0  0  0
   -2.7980    0.1461    1.3673 C   0  0  0  0  0  0  0  0  0  0  0  0
   -3.4928    1.4904    1.3161 C   0  0  0  0  0  0  0  0  0  0  0  0
   -2.5595    2.3091    0.7123 O   0  0  0  0  0  0  0  0  0  0  0  0
   -2.0520    1.5776   -0.3698 C   0  0  0  0  0  0  0  0  0  0  0  0
    3.0263    1.2166   -2.9687 H   0  0  0  0  0  0  0  0  0  0  0  0
    2.7262   -0.5023   -3.3535 H   0  0  0  0  0  0  0  0  0  0  0  0
    4.1649    0.0083   -2.3337 H   0  0  0  0  0  0  0  0  0  0  0  0
    2.1277   -2.0443   -1.7711 H   0  0  0  0  0  0  0  0  0  0  0  0
    3.5190   -1.4472   -0.7790 H   0  0  0  0  0  0  0  0  0  0  0  0
    1.6934   -2.4909    0.6320 H   0  0  0  0  0  0  0  0  0  0  0  0
    3.0309   -0.8176    1.4451 H   0  0  0  0  0  0  0  0  0  0  0  0
    2.1417    0.3948    0.7220 H   0  0  0  0  0  0  0  0  0  0  0  0
   -0.0189    0.4772    1.2182 H   0  0  0  0  0  0  0  0  0  0  0  0
   -2.2546   -0.5191   -0.5610 H   0  0  0  0  0  0  0  0  0  0  0  0
   -3.6028   -0.6309    1.2687 H   0  0  0  0  0  0  0  0  0  0  0  0
   -2.3184    0.0128    2.3459 H   0  0  0  0  0  0  0  0  0  0  0  0
   -4.4441    1.4256    0.7347 H   0  0  0  0  0  0  0  0  0  0  0  0
   -3.6845    1.9044    2.3289 H   0  0  0  0  0  0  0  0  0  0  0  0
   -2.8275    1.6088   -1.1599 H   0  0  0  0  0  0  0  0  0  0  0  0
   -1.1351    2.0103   -0.7664 H   0  0  0  0  0  0  0  0  0  0  0  0
  1  2  1  0
  2  3  1  0
  3  4  1  0
  4  5  1  0
  4  6  1  0
  6  7  2  0
  6  8  1  0
  8  9  1  0
  9 10  1  0
 10 11  1  0
 11 12  1  0
 12 13  1  0
 13  9  1  0
  1 14  1  0
  1 15  1  0
  1 16  1  0
  3 17  1  0
  3 18  1  0
  4 19  1  1
  5 20  1  0
  5 21  1  0
  8 22  1  0
  9 23  1  6
 10 24  1  0
 10 25  1  0
 11 26  1  0
 11 27  1  0
 13 28  1  0
 13 29  1  0
M  END
$$$$

     RDKit          3D

 29 29  0  0  0  0  0  0  0  0999 V2000
   -4.1896    0.6104   -0.0775 C   0  0  0  0  0  0  0  0  0  0  0  0
   -3.6425   -0.3844   -0.8662 O   0  0  0  0  0  0  0  0  0  0  0  0
   -2.2602   -0.4415   -0.8111 C   0  0  0  0  0  0  0  0  0  0  0  0
   -1.7639   -0.7039    0.5923 C   0  0  1  0  0  0  0  0  0  0  0  0
   -2.3010   -1.9611    1.0334 N   0  0  0  0  0  0  0  0  0  0  0  0
   -0.2740   -0.8032    0.6239 C   0  0  0  0  0  0  0  0  0  0  0  0
    0.2984   -1.8685    0.9956 O   0  0  0  0  0  0  0  0  0  0  0  0
    0.5668    0.2757    0.2444 N   0  0  0  0  0  0  0  0  0  0  0  0
    1.9733    0.1253    0.2940 C   0  0  1  0  0  0  0  0  0  0  0  0
    2.6445    0.3832   -1.0639 C   0  0  0  0  0  0  0  0  0  0  0  0
    4.0730    0.5694   -0.5292 C   0  0  0  0  0  0  0  0  0  0  0  0
    3.9626    1.2973    0.6253 O   0  0  0  0  0  0  0  0  0  0  0  0
    2.6794    1.1890    1.1081 C   0  0  0  0  0  0  0  0  0  0  0  0
   -3.8288    1.6339   -0.3697 H   0  0  0  0  0  0  0  0  0  0  0  0
   -4.0747    0.4331    1.0054 H   0  0  0  0  0  0  0  0  0  0  0  0
   -5.3051    0.5814   -0.2520 H   0  0  0  0  0  0  0  0  0  0  0  0
   -1.9133   -1.2881   -1.4343 H   0  0  0  0  0  0  0  0  0  0  0  0
   -1.7810    0.4903   -1.2293 H   0  0  0  0  0  0  0  0  0  0  0  0
   -2.0889    0.0927    1.2732 H   0  0  0  0  0  0  0  0  0  0  0  0
   -1.6243   -2.4731    1.6666 H   0  0  0  0  0  0  0  0  0  0  0  0
   -2.4100   -2.5778    0.1931 H   0  0  0  0  0  0  0  0  0  0  0  0
    0.1287    1.1598   -0.0642 H   0  0  0  0  0  0  0  0  0  0  0  0
    2.3383   -0.8429    0.6321 H   0  0  0  0  0  0  0  0  0  0  0  0
    2.3141    1.3349   -1.4914 H   0  0  0  0  0  0  0  0  0  0  0  0
    2.5663   -0.4839   -1.7276 H   0  0  0  0  0  0  0  0  0  0  0  0
    4.3948   -0.4739   -0.2419 H   0  0  0  0  0  0  0  0  0  0  0  0
    4.7396    0.9900   -1.2914 H   0  0  0  0  0  0  0  0  0  0  0  0
    2.1650    2.1647    0.9319 H   0  0  0  0  0  0  0  0  0  0  0  0
    2.6125    0.9712    2.1854 H   0  0  0  0  0  0  0  0  0  0  0  0
  1  2  1  0
  2  3  1  0
  3  4  1  0
  4  5  1  0
  4  6  1  0
  6  7  2  0
  6  8  1  0
  8  9  1  0
  9 10  1  0
 10 11  1  0
 11 12  1  0
 12 13  1  0
 13  9  1  0
  1 14  1  0
  1 15  1  0
  1 16  1  0
  3 17  1  0
  3 18  1  0
  4 19  1  1
  5 20  1  0
  5 21  1  0
  8 22  1  0
  9 23  1  1
 10 24  1  0
 10 25  1  0
 11 26  1  0
 11 27  1  0
 13 28  1  0
 13 29  1  0
M  END
$$$$

     RDKit          3D

 29 29  0  0  0  0  0  0  0  0999 V2000
    4.4603   -0.1908    0.3250 C   0  0  0  0  0  0  0  0  0  0  0  0
    3.5102    0.6415    0.8393 O   0  0  0  0  0  0  0  0  0  0  0  0
    2.2358    0.2041    0.6868 C   0  0  0  0  0  0  0  0  0  0  0  0
    1.7420   -0.0015   -0.7053 C   0  0  1  0  0  0  0  0  0  0  0  0
    2.4468   -0.9987   -1.4641 N   0  0  0  0  0  0  0  0  0  0  0  0
    0.2894   -0.3756   -0.7267 C   0  0  0  0  0  0  0  0  0  0  0  0
   -0.1257   -1.3996   -1.3317 O   0  0  0  0  0  0  0  0  0  0  0  0
   -0.6922    0.4072   -0.0650 N   0  0  0  0  0  0  0  0  0  0  0  0
   -2.0782    0.0710   -0.0719 C   0  0  1  0  0  0  0  0  0  0  0  0
   -2.6215   -0.1982    1.3351 C   0  0  0  0  0  0  0  0  0  0  0  0
   -4.1135    0.0187    1.0385 C   0  0  0  0  0  0  0  0  0  0  0  0
   -4.1823    1.0574    0.1493 O   0  0  0  0  0  0  0  0  0  0  0  0
   -2.9778    1.1992   -0.4881 C   0  0  0  0  0  0  0  0  0  0  0  0
    5.4616    0.2974    0.5960 H   0  0  0  0  0  0  0  0  0  0  0  0
    4.4298   -0.2245   -0.7991 H   0  0  0  0  0  0  0  0  0  0  0  0
    4.3779   -1.1838    0.7885 H   0  0  0  0  0  0  0  0  0  0  0  0
    1.5787    0.9641    1.2169 H   0  0  0  0  0  0  0  0  0  0  0  0
    2.0536   -0.7568    1.2688 H   0  0  0  0  0  0  0  0  0  0  0  0
    1.8876    0.9623   -1.2865 H   0  0  0  0  0  0  0  0  0  0  0  0
    2.4730   -1.9236   -0.9938 H   0  0  0  0  0  0  0  0  0  0  0  0
    1.9596   -1.0830   -2.3835 H   0  0  0  0  0  0  0  0  0  0  0  0
   -0.3846    1.2532    0.4402 H   0  0  0  0  0  0  0  0  0  0  0  0
   -2.2876   -0.8623   -0.6491 H   0  0  0  0  0  0  0  0  0  0  0  0
   -2.4082   -1.2041    1.6835 H   0  0  0  0  0  0  0  0  0  0  0  0
   -2.3527    0.6147    2.0275 H   0  0  0  0  0  0  0  0  0  0  0  0
   -4.4378   -0.9200    0.5189 H   0  0  0  0  0  0  0  0  0  0  0  0
   -4.6953    0.1471    1.9605 H   0  0  0  0  0  0  0  0  0  0  0  0
   -3.0430    1.3427   -1.5783 H   0  0  0  0  0  0  0  0  0  0  0  0
   -2.5059    2.1419   -0.0880 H   0  0  0  0  0  0  0  0  0  0  0  0
  1  2  1  0
  2  3  1  0
  3  4  1  0
  4  5  1  0
  4  6  1  0
  6  7  2  0
  6  8  1  0
  8  9  1  0
  9 10  1  0
 10 11  1  0
 11 12  1  0
 12 13  1  0
 13  9  1  0
  1 14  1  0
  1 15  1  0
  1 16  1  0
  3 17  1  0
  3 18  1  0
  4 19  1  6
  5 20  1  0
  5 21  1  0
  8 22  1  0
  9 23  1  6
 10 24  1  0
 10 25  1  0
 11 26  1  0
 11 27  1  0
 13 28  1  0
 13 29  1  0
M  END
$$$$
