
     RDKit          3D

 24 24  0  0  0  0  0  0  0  0999 V2000
   -2.6847   -2.3136    0.4279 C   0  0  0  0  0  0  0  0  0  0  0  0
   -1.4389   -1.7033    0.1463 O   0  0  0  0  0  0  0  0  0  0  0  0
   -1.4525   -0.3654   -0.2088 C   0  0  0  0  0  0  0  0  0  0  0  0
   -2.4025    0.4090   -0.6432 C   0  0  0  0  0  0  0  0  0  0  0  0
   -2.1275    1.6468   -0.7275 N   0  0  0  0  0  0  0  0  0  0  0  0
   -0.7581    1.8158   -0.4984 N   0  0  0  0  0  0  0  0  0  0  0  0
    0.0246    3.0467   -0.5871 C   0  0  0  0  0  0  0  0  0  0  0  0
   -0.2705    0.5185   -0.1540 C   0  0  0  0  0  3  0  0  0  0  0  0
    1.1092    0.1828    0.1747 C   0  0  1  0  0  0  0  0  0  0  0  0
    1.1974   -0.2970    1.4805 O   0  0  0  0  0  0  0  0  0  0  0  0
    1.7282   -0.8318   -0.7366 C   0  0  0  0  0  0  0  0  0  0  0  0
    3.1111   -1.0121   -0.3536 N   0  0  0  0  0  0  0  0  0  0  0  0
   -2.5960   -3.3729    0.7015 H   0  0  0  0  0  0  0  0  0  0  0  0
   -3.2007   -1.7452    1.2474 H   0  0  0  0  0  0  0  0  0  0  0  0
   -3.3673   -2.2290   -0.4647 H   0  0  0  0  0  0  0  0  0  0  0  0
    0.5617    3.1427    0.3786 H   0  0  0  0  0  0  0  0  0  0  0  0
   -0.6651    3.8727   -0.7566 H   0  0  0  0  0  0  0  0  0  0  0  0
    0.7485    2.8988   -1.4072 H   0  0  0  0  0  0  0  0  0  0  0  0
    1.7271    1.1005    0.1254 H   0  0  0  0  0  0  0  0  0  0  0  0
    0.8887   -1.2452    1.4479 H   0  0  0  0  0  0  0  0  0  0  0  0
    1.2041   -1.8045   -0.5741 H   0  0  0  0  0  0  0  0  0  0  0  0
    1.6805   -0.5482   -1.8050 H   0  0  0  0  0  0  0  0  0  0  0  0
    3.2112   -0.7498    0.6457 H   0  0  0  0  0  0  0  0  0  0  0  0
    3.7716   -0.4162   -0.8979 H   0  0  0  0  0  0  0  0  0  0  0  0
  1  2  1  0
  2  3  1  0
  3  4  2  0
  4  5  2  0
  5  6  1  0
  6  7  1  0
  6  8  1  0
  8  9  1  0
  9 10  1  0
  9 11  1  0
 11 12  1  0
  8  3  1  0
  1 13  1  0
  1 14  1  0
  1 15  1  0
  7 16  1  0
  7 17  1  0
  7 18  1  0
  9 19  1  1
 10 20  1  0
 11 21  1  0
 11 22  1  0
 12 23  1  0
 12 24  1  0
M  CHG  1   8  -1
M  END
$$$$

     RDKit          3D

 24 24  0  0  0  0  0  0  0  0999 V2000
    3.6787    0.0501    0.0853 C   0  0  0  0  0  0  0  0  0  0  0  0
    2.3109    0.2193    0.3650 O   0  0  0  0  0  0  0  0  0  0  0  0
    1.3728   -0.7748    0.3213 C   0  0  0  0  0  0  0  0  0  0  0  0
    1.5278   -2.0589    0.5816 C   0  0  0  0  0  0  0  0  0  0  0  0
    0.4242   -2.6798    0.8276 N   0  0  0  0  0  0  0  0  0  0  0  0
   -0.6275   -1.8875    0.3130 N   0  0  0  0  0  0  0  0  0  0  0  0
   -2.0015   -2.2618    0.1628 C   0  0  0  0  0  0  0  0  0  0  0  0
   -0.0269   -0.6212   -0.0299 C   0  0  0  0  0  3  0  0  0  0  0  0
   -0.7197    0.5318   -0.6027 C   0  0  1  0  0  0  0  0  0  0  0  0
   -2.0693    0.2403   -0.7955 O   0  0  0  0  0  0  0  0  0  0  0  0
   -0.6415    1.7680    0.2585 C   0  0  0  0  0  0  0  0  0  0  0  0
   -1.3003    2.8667   -0.4013 N   0  0  0  0  0  0  0  0  0  0  0  0
    4.1445   -0.6816    0.7733 H   0  0  0  0  0  0  0  0  0  0  0  0
    4.1797    1.0437    0.2680 H   0  0  0  0  0  0  0  0  0  0  0  0
    3.7744   -0.2389   -0.9648 H   0  0  0  0  0  0  0  0  0  0  0  0
   -2.2794   -2.3322   -0.9212 H   0  0  0  0  0  0  0  0  0  0  0  0
   -2.7038   -1.5826    0.6709 H   0  0  0  0  0  0  0  0  0  0  0  0
   -2.1442   -3.2678    0.6019 H   0  0  0  0  0  0  0  0  0  0  0  0
   -0.3111    0.7599   -1.6217 H   0  0  0  0  0  0  0  0  0  0  0  0
   -2.6496    0.7022   -0.1382 H   0  0  0  0  0  0  0  0  0  0  0  0
    0.3887    2.0710    0.4887 H   0  0  0  0  0  0  0  0  0  0  0  0
   -1.1501    1.5393    1.2137 H   0  0  0  0  0  0  0  0  0  0  0  0
   -2.3152    2.8400   -0.1321 H   0  0  0  0  0  0  0  0  0  0  0  0
   -0.8619    3.7549   -0.0709 H   0  0  0  0  0  0  0  0  0  0  0  0
  1  2  1  0
  2  3  1  0
  3  4  2  0
  4  5  2  0
  5  6  1  0
  6  7  1  0
  6  8  1  0
  8  9  1  0
  9 10  1  0
  9 11  1  0
 11 12  1  0
  8  3  1  0
  1 13  1  0
  1 14  1  0
  1 15  1  0
  7 16  1  0
  7 17  1  0
  7 18  1  0
  9 19  1  6
 10 20  1  0
 11 21  1  0
 11 22  1  0
 12 23  1  0
 12 24  1  0
M  CHG  1   8  -1
M  END
$$$$

     RDKit          3D

 24 24  0  0  0  0  0  0  0  0999 V2000
    3.6490   -1.0236   -0.5736 C   0  0  0  0  0  0  0  0  0  0  0  0
    2.4100   -0.9215    0.1138 O   0  0  0  0  0  0  0  0  0  0  0  0
    1.6913    0.2450    0.1067 C   0  0  0  0  0  0  0  0  0  0  0  0
    2.1601    1.4716    0.2698 C   0  0  0  0  0  0  0  0  0  0  0  0
    1.3330    2.3961   -0.0015 N   0  0  0  0  0  0  0  0  0  0  0  0
    0.0479    1.8131   -0.1466 N   0  0  0  0  0  0  0  0  0  0  0  0
   -1.2130    2.4598   -0.3252 C   0  0  0  0  0  0  0  0  0  0  0  0
    0.2330    0.4203   -0.0825 C   0  0  0  0  0  3  0  0  0  0  0  0
   -0.6587   -0.7240   -0.1620 C   0  0  1  0  0  0  0  0  0  0  0  0
   -0.4621   -1.5639    0.9417 O   0  0  0  0  0  0  0  0  0  0  0  0
   -2.1028   -0.4641   -0.3492 C   0  0  0  0  0  0  0  0  0  0  0  0
   -2.7399   -1.7780   -0.5743 N   0  0  0  0  0  0  0  0  0  0  0  0
    3.4851   -0.8252   -1.6549 H   0  0  0  0  0  0  0  0  0  0  0  0
    4.0887   -2.0209   -0.3899 H   0  0  0  0  0  0  0  0  0  0  0  0
    4.2982   -0.2092   -0.1513 H   0  0  0  0  0  0  0  0  0  0  0  0
   -1.6189    2.3931   -1.3532 H   0  0  0  0  0  0  0  0  0  0  0  0
   -1.0234    3.5677   -0.1843 H   0  0  0  0  0  0  0  0  0  0  0  0
   -1.9541    2.2187    0.4597 H   0  0  0  0  0  0  0  0  0  0  0  0
   -0.3180   -1.3433   -1.0456 H   0  0  0  0  0  0  0  0  0  0  0  0
   -1.2076   -1.5716    1.5643 H   0  0  0  0  0  0  0  0  0  0  0  0
   -2.3154    0.1063   -1.2653 H   0  0  0  0  0  0  0  0  0  0  0  0
   -2.6176   -0.0756    0.5550 H   0  0  0  0  0  0  0  0  0  0  0  0
   -3.1180   -2.1745    0.2970 H   0  0  0  0  0  0  0  0  0  0  0  0
   -2.0468   -2.3961   -1.0545 H   0  0  0  0  0  0  0  0  0  0  0  0
  1  2  1  0
  2  3  1  0
  3  4  2  0
  4  5  2  0
  5  6  1  0
  6  7  1  0
  6  8  1  0
  8  9  1  0
  9 10  1  0
  9 11  1  0
 11 12  1  0
  8  3  1  0
  1 13  1  0
  1 14  1  0
  1 15  1  0
  7 16  1  0
  7 17  1  0
  7 18  1  0
  9 19  1  6
 10 20  1  0
 11 21  1  0
 11 22  1  0
 12 23  1  0
 12 24  1  0
M  CHG  1   8  -1
M  END
$$$$

     RDKit          3D

 24 24  0  0  0  0  0  0  0  0999 V2000
    2.2017   -2.4281    0.2271 C   0  0  0  0  0  0  0  0  0  0  0  0
    1.2714   -1.9081   -0.7349 O   0  0  0  0  0  0  0  0  0  0  0  0
    1.3147   -0.5348   -0.9279 C   0  0  0  0  0  0  0  0  0  0  0  0
    2.0999    0.1949   -1.6704 C   0  0  0  0  0  0  0  0  0  0  0  0
    1.8778    1.4655   -1.6302 N   0  0  0  0  0  0  0  0  0  0  0  0
    0.8115    1.7306   -0.7649 N   0  0  0  0  0  0  0  0  0  0  0  0
    0.1876    2.9806   -0.3840 C   0  0  0  0  0  0  0  0  0  0  0  0
    0.4190    0.4378   -0.2870 C   0  0  0  0  0  3  0  0  0  0  0  0
   -0.6687    0.1339    0.6614 C   0  0  1  0  0  0  0  0  0  0  0  0
   -1.3289    1.3108    1.0118 O   0  0  0  0  0  0  0  0  0  0  0  0
   -1.6700   -0.7790   -0.0348 C   0  0  0  0  0  0  0  0  0  0  0  0
   -2.7839   -1.0981    0.8262 N   0  0  0  0  0  0  0  0  0  0  0  0
    1.9570   -1.9345    1.1848 H   0  0  0  0  0  0  0  0  0  0  0  0
    2.1618   -3.5250    0.2798 H   0  0  0  0  0  0  0  0  0  0  0  0
    3.2364   -2.0757   -0.0426 H   0  0  0  0  0  0  0  0  0  0  0  0
   -0.8234    3.0971   -0.8255 H   0  0  0  0  0  0  0  0  0  0  0  0
    0.1533    3.1059    0.7258 H   0  0  0  0  0  0  0  0  0  0  0  0
    0.8312    3.7931   -0.7710 H   0  0  0  0  0  0  0  0  0  0  0  0
   -0.2309   -0.3537    1.5511 H   0  0  0  0  0  0  0  0  0  0  0  0
   -2.0961    1.4180    0.4197 H   0  0  0  0  0  0  0  0  0  0  0  0
   -1.9661   -0.3335   -0.9901 H   0  0  0  0  0  0  0  0  0  0  0  0
   -1.1580   -1.7392   -0.2709 H   0  0  0  0  0  0  0  0  0  0  0  0
   -3.2111   -2.0170    0.6107 H   0  0  0  0  0  0  0  0  0  0  0  0
   -2.5863   -0.9418    1.8357 H   0  0  0  0  0  0  0  0  0  0  0  0
  1  2  1  0
  2  3  1  0
  3  4  2  0
  4  5  2  0
  5  6  1  0
  6  7  1  0
  6  8  1  0
  8  9  1  0
  9 10  1  0
  9 11  1  0
 11 12  1  0
  8  3  1  0
  1 13  1  0
  1 14  1  0
  1 15  1  0
  7 16  1  0
  7 17  1  0
  7 18  1  0
  9 19  1  1
 10 20  1  0
 11 21  1  0
 11 22  1  0
 12 23  1  0
 12 24  1  0
M  CHG  1   8  -1
M  END
$$$$

     RDKit          3D

 24 24  0  0  0  0  0  0  0  0999 V2000
    3.2573   -1.1391   -0.5118 C   0  0  0  0  0  0  0  0  0  0  0  0
    1.8610   -0.9640   -0.7072 O   0  0  0  0  0  0  0  0  0  0  0  0
    1.3271    0.2584   -0.3350 C   0  0  0  0  0  0  0  0  0  0  0  0
    1.8937    1.3771    0.0138 C   0  0  0  0  0  0  0  0  0  0  0  0
    1.0816    2.3287    0.3265 N   0  0  0  0  0  0  0  0  0  0  0  0
   -0.2487    1.8666    0.1648 N   0  0  0  0  0  0  0  0  0  0  0  0
   -1.4784    2.5806    0.3814 C   0  0  0  0  0  0  0  0  0  0  0  0
   -0.1054    0.5203   -0.2656 C   0  0  0  0  0  3  0  0  0  0  0  0
   -1.1757   -0.4246   -0.5795 C   0  0  1  0  0  0  0  0  0  0  0  0
   -1.1710   -0.8094   -1.9321 O   0  0  0  0  0  0  0  0  0  0  0  0
   -1.1513   -1.6576    0.2828 C   0  0  0  0  0  0  0  0  0  0  0  0
   -1.1571   -1.2105    1.6721 N   0  0  0  0  0  0  0  0  0  0  0  0
    3.5898   -2.1519   -0.8408 H   0  0  0  0  0  0  0  0  0  0  0  0
    3.8165   -0.3609   -1.0856 H   0  0  0  0  0  0  0  0  0  0  0  0
    3.5277   -1.0029    0.5573 H   0  0  0  0  0  0  0  0  0  0  0  0
   -1.1994    3.5769    0.8105 H   0  0  0  0  0  0  0  0  0  0  0  0
   -2.0554    2.6552   -0.5472 H   0  0  0  0  0  0  0  0  0  0  0  0
   -2.0497    2.0463    1.1747 H   0  0  0  0  0  0  0  0  0  0  0  0
   -2.1536    0.0702   -0.4127 H   0  0  0  0  0  0  0  0  0  0  0  0
   -1.2765   -0.0254   -2.5236 H   0  0  0  0  0  0  0  0  0  0  0  0
   -0.2816   -2.3096    0.0768 H   0  0  0  0  0  0  0  0  0  0  0  0
   -2.0612   -2.2430    0.0385 H   0  0  0  0  0  0  0  0  0  0  0  0
   -0.6471   -1.8780    2.2851 H   0  0  0  0  0  0  0  0  0  0  0  0
   -2.1425   -1.1033    1.9568 H   0  0  0  0  0  0  0  0  0  0  0  0
  1  2  1  0
  2  3  1  0
  3  4  2  0
  4  5  2  0
  5  6  1  0
  6  7  1  0
  6  8  1  0
  8  9  1  0
  9 10  1  0
  9 11  1  0
 11 12  1  0
  8  3  1  0
  1 13  1  0
  1 14  1  0
  1 15  1  0
  7 16  1  0
  7 17  1  0
  7 18  1  0
  9 19  1  1
 10 20  1  0
 11 21  1  0
 11 22  1  0
 12 23  1  0
 12 24  1  0
M  CHG  1   8  -1
M  END
$$$$

     RDKit          3D

 24 24  0  0  0  0  0  0  0  0999 V2000
    3.2409   -1.1398    0.3887 C   0  0  0  0  0  0  0  0  0  0  0  0
    1.9931   -0.9595   -0.2973 O   0  0  0  0  0  0  0  0  0  0  0  0
    1.4073    0.2882   -0.2040 C   0  0  0  0  0  0  0  0  0  0  0  0
    2.0186    1.4530   -0.0702 C   0  0  0  0  0  0  0  0  0  0  0  0
    1.2781    2.4312    0.2625 N   0  0  0  0  0  0  0  0  0  0  0  0
   -0.0430    2.0374    0.0802 N   0  0  0  0  0  0  0  0  0  0  0  0
   -1.2723    2.7923    0.1596 C   0  0  0  0  0  0  0  0  0  0  0  0
   -0.0128    0.6371   -0.2285 C   0  0  0  0  0  3  0  0  0  0  0  0
   -1.1318   -0.2635   -0.5087 C   0  0  1  0  0  0  0  0  0  0  0  0
   -0.9873   -0.7718   -1.7957 O   0  0  0  0  0  0  0  0  0  0  0  0
   -1.1494   -1.3962    0.5212 C   0  0  0  0  0  0  0  0  0  0  0  0
   -2.2445   -2.3050    0.2733 N   0  0  0  0  0  0  0  0  0  0  0  0
    3.9581   -0.4060   -0.0431 H   0  0  0  0  0  0  0  0  0  0  0  0
    3.6320   -2.1550    0.1736 H   0  0  0  0  0  0  0  0  0  0  0  0
    3.0874   -0.9819    1.4773 H   0  0  0  0  0  0  0  0  0  0  0  0
   -1.5887    3.1496   -0.8438 H   0  0  0  0  0  0  0  0  0  0  0  0
   -1.1230    3.6910    0.7834 H   0  0  0  0  0  0  0  0  0  0  0  0
   -2.0700    2.1369    0.5360 H   0  0  0  0  0  0  0  0  0  0  0  0
   -2.0907    0.2673   -0.4240 H   0  0  0  0  0  0  0  0  0  0  0  0
   -0.0362   -0.9352   -1.9884 H   0  0  0  0  0  0  0  0  0  0  0  0
   -0.2160   -1.9994    0.4717 H   0  0  0  0  0  0  0  0  0  0  0  0
   -1.3194   -0.9459    1.5203 H   0  0  0  0  0  0  0  0  0  0  0  0
   -2.1546   -2.7685   -0.6576 H   0  0  0  0  0  0  0  0  0  0  0  0
   -3.1757   -1.8565    0.4134 H   0  0  0  0  0  0  0  0  0  0  0  0
  1  2  1  0
  2  3  1  0
  3  4  2  0
  4  5  2  0
  5  6  1  0
  6  7  1  0
  6  8  1  0
  8  9  1  0
  9 10  1  0
  9 11  1  0
 11 12  1  0
  8  3  1  0
  1 13  1  0
  1 14  1  0
  1 15  1  0
  7 16  1  0
  7 17  1  0
  7 18  1  0
  9 19  1  6
 10 20  1  0
 11 21  1  0
 11 22  1  0
 12 23  1  0
 12 24  1  0
M  CHG  1   8  -1
M  END
$$$$

     RDKit          3D

 24 24  0  0  0  0  0  0  0  0999 V2000
    3.5570   -1.0355   -0.1747 C   0  0  0  0  0  0  0  0  0  0  0  0
    2.4362   -0.6928   -0.9395 O   0  0  0  0  0  0  0  0  0  0  0  0
    1.6181    0.3805   -0.6597 C   0  0  0  0  0  0  0  0  0  0  0  0
    1.9518    1.6402   -0.7436 C   0  0  0  0  0  0  0  0  0  0  0  0
    1.0069    2.4695   -0.5709 N   0  0  0  0  0  0  0  0  0  0  0  0
   -0.1415    1.7357   -0.1676 N   0  0  0  0  0  0  0  0  0  0  0  0
   -1.4109    2.2535    0.2159 C   0  0  0  0  0  0  0  0  0  0  0  0
    0.2030    0.3763   -0.2089 C   0  0  0  0  0  3  0  0  0  0  0  0
   -0.4662   -0.8742    0.0724 C   0  0  1  0  0  0  0  0  0  0  0  0
    0.3012   -1.5124    1.0873 O   0  0  0  0  0  0  0  0  0  0  0  0
   -1.8674   -0.8977    0.4819 C   0  0  0  0  0  0  0  0  0  0  0  0
   -2.7793   -0.2902   -0.4688 N   0  0  0  0  0  0  0  0  0  0  0  0
    3.3054   -1.2678    0.8947 H   0  0  0  0  0  0  0  0  0  0  0  0
    4.2854   -0.2141   -0.1555 H   0  0  0  0  0  0  0  0  0  0  0  0
    4.0319   -1.9385   -0.6411 H   0  0  0  0  0  0  0  0  0  0  0  0
   -2.1287    2.4052   -0.6133 H   0  0  0  0  0  0  0  0  0  0  0  0
   -1.2119    3.3190    0.5634 H   0  0  0  0  0  0  0  0  0  0  0  0
   -1.8420    1.7872    1.1251 H   0  0  0  0  0  0  0  0  0  0  0  0
   -0.3369   -1.5546   -0.8186 H   0  0  0  0  0  0  0  0  0  0  0  0
    0.0448   -2.4685    1.0886 H   0  0  0  0  0  0  0  0  0  0  0  0
   -2.1804   -1.9892    0.4996 H   0  0  0  0  0  0  0  0  0  0  0  0
   -2.0804   -0.5587    1.5138 H   0  0  0  0  0  0  0  0  0  0  0  0
   -2.5304   -0.5495   -1.4272 H   0  0  0  0  0  0  0  0  0  0  0  0
   -3.7659   -0.5234   -0.2615 H   0  0  0  0  0  0  0  0  0  0  0  0
  1  2  1  0
  2  3  1  0
  3  4  2  0
  4  5  2  0
  5  6  1  0
  6  7  1  0
  6  8  1  0
  8  9  1  0
  9 10  1  0
  9 11  1  0
 11 12  1  0
  8  3  1  0
  1 13  1  0
  1 14  1  0
  1 15  1  0
  7 16  1  0
  7 17  1  0
  7 18  1  0
  9 19  1  6
 10 20  1  0
 11 21  1  0
 11 22  1  0
 12 23  1  0
 12 24  1  0
M  CHG  1   8  -1
M  END
$$$$

     RDKit          3D

 24 24  0  0  0  0  0  0  0  0999 V2000
    3.2697   -1.0115    0.3098 C   0  0  0  0  0  0  0  0  0  0  0  0
    2.2655   -1.3127   -0.6355 O   0  0  0  0  0  0  0  0  0  0  0  0
    0.9539   -1.5524   -0.3423 C   0  0  0  0  0  0  0  0  0  0  0  0
    0.4261   -2.7605   -0.2173 C   0  0  0  0  0  0  0  0  0  0  0  0
   -0.8143   -2.7584    0.1017 N   0  0  0  0  0  0  0  0  0  0  0  0
   -1.2631   -1.4386    0.1777 N   0  0  0  0  0  0  0  0  0  0  0  0
   -2.5732   -1.0234    0.4775 C   0  0  0  0  0  0  0  0  0  0  0  0
   -0.1569   -0.6313   -0.1013 C   0  0  0  0  0  3  0  0  0  0  0  0
    0.0064    0.7990   -0.1715 C   0  0  1  0  0  0  0  0  0  0  0  0
    0.5439    1.1097   -1.4457 O   0  0  0  0  0  0  0  0  0  0  0  0
   -1.1285    1.6827    0.0754 C   0  0  0  0  0  0  0  0  0  0  0  0
   -0.6160    3.0706    0.0361 N   0  0  0  0  0  0  0  0  0  0  0  0
    3.4265   -1.7852    1.0595 H   0  0  0  0  0  0  0  0  0  0  0  0
    4.2119   -0.8551   -0.2424 H   0  0  0  0  0  0  0  0  0  0  0  0
    3.0148   -0.0393    0.8115 H   0  0  0  0  0  0  0  0  0  0  0  0
   -2.7130   -0.4714    1.4173 H   0  0  0  0  0  0  0  0  0  0  0  0
   -3.0192   -0.4269   -0.3732 H   0  0  0  0  0  0  0  0  0  0  0  0
   -3.2315   -1.9151    0.5485 H   0  0  0  0  0  0  0  0  0  0  0  0
    0.8395    1.0850    0.5385 H   0  0  0  0  0  0  0  0  0  0  0  0
    0.1675    0.5397   -2.1428 H   0  0  0  0  0  0  0  0  0  0  0  0
   -1.5400    1.5962    1.1051 H   0  0  0  0  0  0  0  0  0  0  0  0
   -1.9119    1.6709   -0.7085 H   0  0  0  0  0  0  0  0  0  0  0  0
   -0.3836    3.3293   -0.9466 H   0  0  0  0  0  0  0  0  0  0  0  0
    0.2257    3.0988    0.6684 H   0  0  0  0  0  0  0  0  0  0  0  0
  1  2  1  0
  2  3  1  0
  3  4  2  0
  4  5  2  0
  5  6  1  0
  6  7  1  0
  6  8  1  0
  8  9  1  0
  9 10  1  0
  9 11  1  0
 11 12  1  0
  8  3  1  0
  1 13  1  0
  1 14  1  0
  1 15  1  0
  7 16  1  0
  7 17  1  0
  7 18  1  0
  9 19  1  1
 10 20  1  0
 11 21  1  0
 11 22  1  0
 12 23  1  0
 12 24  1  0
M  CHG  1   8  -1
M  END
$$$$
