
     RDKit          3D

 26 26  0  0  0  0  0  0  0  0999 V2000
    4.0604   -0.3334    0.2450 C   0  0  0  0  0  0  0  0  0  0  0  0
    2.7040   -1.0269    0.0837 C   0  0  0  0  0  0  0  0  0  0  0  0
    1.6407   -0.1013    0.3312 N   0  0  0  0  0  4  0  0  0  0  0  0
    0.7068   -0.1466    1.2246 C   0  0  0  0  0  0  0  0  0  0  0  0
   -0.4144    0.4545    0.8245 C   0  0  0  0  0  0  0  0  0  0  0  0
   -1.7894    0.1271    1.2220 C   0  0  2  0  0  0  0  0  0  0  0  0
   -1.8108   -0.8468    2.2333 O   0  0  0  0  0  0  0  0  0  0  0  0
   -2.5483   -0.3723    0.0092 C   0  0  2  0  0  0  0  0  0  0  0  0
   -2.5843    0.6795   -1.0444 C   0  0  0  0  0  0  0  0  0  0  0  0
   -3.8600   -0.6238    0.4706 O   0  0  0  0  0  0  0  0  0  0  0  0
    0.0648    1.4533   -0.0614 N   0  0  0  0  0  0  0  0  0  0  0  0
    1.3910    1.0886   -0.3762 N   0  0  0  0  0  0  0  0  0  0  0  0
    3.8882    0.4798    0.9838 H   0  0  0  0  0  0  0  0  0  0  0  0
    4.3511    0.0747   -0.7431 H   0  0  0  0  0  0  0  0  0  0  0  0
    4.7954   -1.0239    0.6797 H   0  0  0  0  0  0  0  0  0  0  0  0
    2.6838   -1.8826    0.7869 H   0  0  0  0  0  0  0  0  0  0  0  0
    2.5922   -1.3981   -0.9713 H   0  0  0  0  0  0  0  0  0  0  0  0
   -2.3162    1.0117    1.6164 H   0  0  0  0  0  0  0  0  0  0  0  0
   -1.2948   -1.6430    2.0031 H   0  0  0  0  0  0  0  0  0  0  0  0
   -2.1065   -1.2994   -0.3992 H   0  0  0  0  0  0  0  0  0  0  0  0
   -2.7357    1.7012   -0.6479 H   0  0  0  0  0  0  0  0  0  0  0  0
   -3.4572    0.5307   -1.7476 H   0  0  0  0  0  0  0  0  0  0  0  0
   -1.6770    0.6931   -1.6743 H   0  0  0  0  0  0  0  0  0  0  0  0
   -3.8664   -1.4859    0.9889 H   0  0  0  0  0  0  0  0  0  0  0  0
   -0.4431    2.2791   -0.4042 H   0  0  0  0  0  0  0  0  0  0  0  0
    2.0259    1.6109   -1.0033 H   0  0  0  0  0  0  0  0  0  0  0  0
  1  2  1  0
  2  3  1  0
  3  4  2  0
  4  5  2  0
  5  6  1  0
  6  7  1  0
  6  8  1  0
  8  9  1  0
  8 10  1  0
  5 11  1  0
 11 12  1  0
 12  3  1  0
  1 13  1  0
  1 14  1  0
  1 15  1  0
  2 16  1  0
  2 17  1  0
  6 18  1  1
  7 19  1  0
  8 20  1  6
  9 21  1  0
  9 22  1  0
  9 23  1  0
 10 24  1  0
 11 25  1  0
 12 26  1  0
M  CHG  1   3   1
M  END
$$$$

     RDKit          3D

 26 26  0  0  0  0  0  0  0  0999 V2000
    4.1985    0.0260   -0.5235 C   0  0  0  0  0  0  0  0  0  0  0  0
    3.2091   -1.0764   -0.1402 C   0  0  0  0  0  0  0  0  0  0  0  0
    1.9219   -0.4391    0.0359 N   0  0  0  0  0  4  0  0  0  0  0  0
    0.8263   -0.6534   -0.5854 C   0  0  0  0  0  0  0  0  0  0  0  0
   -0.1889    0.0678   -0.2017 C   0  0  0  0  0  0  0  0  0  0  0  0
   -1.5956    0.0826   -0.6762 C   0  0  2  0  0  0  0  0  0  0  0  0
   -1.9412    1.3253   -1.1680 O   0  0  0  0  0  0  0  0  0  0  0  0
   -2.5406   -0.3041    0.4607 C   0  0  2  0  0  0  0  0  0  0  0  0
   -3.9291   -0.5726   -0.0574 C   0  0  0  0  0  0  0  0  0  0  0  0
   -2.4900    0.5937    1.4974 O   0  0  0  0  0  0  0  0  0  0  0  0
    0.3378    0.9019    0.8341 N   0  0  0  0  0  0  0  0  0  0  0  0
    1.6985    0.5679    0.9798 N   0  0  0  0  0  0  0  0  0  0  0  0
    3.9134    0.4863   -1.4978 H   0  0  0  0  0  0  0  0  0  0  0  0
    4.1621    0.7957    0.2628 H   0  0  0  0  0  0  0  0  0  0  0  0
    5.1909   -0.4851   -0.5858 H   0  0  0  0  0  0  0  0  0  0  0  0
    3.5330   -1.4307    0.8769 H   0  0  0  0  0  0  0  0  0  0  0  0
    3.2032   -1.8963   -0.8570 H   0  0  0  0  0  0  0  0  0  0  0  0
   -1.7386   -0.6720   -1.4685 H   0  0  0  0  0  0  0  0  0  0  0  0
   -1.8155    2.0450   -0.5064 H   0  0  0  0  0  0  0  0  0  0  0  0
   -2.1387   -1.2813    0.8491 H   0  0  0  0  0  0  0  0  0  0  0  0
   -4.4447   -1.2140    0.7006 H   0  0  0  0  0  0  0  0  0  0  0  0
   -4.5164    0.3645   -0.1407 H   0  0  0  0  0  0  0  0  0  0  0  0
   -3.8430   -1.1029   -1.0173 H   0  0  0  0  0  0  0  0  0  0  0  0
   -3.2435    1.2481    1.4664 H   0  0  0  0  0  0  0  0  0  0  0  0
   -0.1351    1.6250    1.4005 H   0  0  0  0  0  0  0  0  0  0  0  0
    2.3665    0.9979    1.6552 H   0  0  0  0  0  0  0  0  0  0  0  0
  1  2  1  0
  2  3  1  0
  3  4  2  0
  4  5  2  0
  5  6  1  0
  6  7  1  0
  6  8  1  0
  8  9  1  0
  8 10  1  0
  5 11  1  0
 11 12  1  0
 12  3  1  0
  1 13  1  0
  1 14  1  0
  1 15  1  0
  2 16  1  0
  2 17  1  0
  6 18  1  6
  7 19  1  0
  8 20  1  1
  9 21  1  0
  9 22  1  0
  9 23  1  0
 10 24  1  0
 11 25  1  0
 12 26  1  0
M  CHG  1   3   1
M  END
$$$$

     RDKit          3D

 26 26  0  0  0  0  0  0  0  0999 V2000
    3.5962   -1.3553   -0.2253 C   0  0  0  0  0  0  0  0  0  0  0  0
    3.0417   -0.0161   -0.6622 C   0  0  0  0  0  0  0  0  0  0  0  0
    1.7693    0.2849   -0.0756 N   0  0  0  0  0  4  0  0  0  0  0  0
    0.6775    0.4997   -0.6817 C   0  0  0  0  0  0  0  0  0  0  0  0
   -0.3583    0.7497    0.0883 C   0  0  0  0  0  0  0  0  0  0  0  0
   -1.7111    1.0183   -0.4000 C   0  0  2  0  0  0  0  0  0  0  0  0
   -2.1393    2.2860    0.0113 O   0  0  0  0  0  0  0  0  0  0  0  0
   -2.7295    0.0155    0.1002 C   0  0  2  0  0  0  0  0  0  0  0  0
   -2.3181   -1.3647   -0.3654 C   0  0  0  0  0  0  0  0  0  0  0  0
   -3.9732    0.3166   -0.4472 O   0  0  0  0  0  0  0  0  0  0  0  0
    0.1491    0.6929    1.4095 N   0  0  0  0  0  0  0  0  0  0  0  0
    1.4989    0.3973    1.2853 N   0  0  0  0  0  0  0  0  0  0  0  0
    3.2683   -1.6470    0.7744 H   0  0  0  0  0  0  0  0  0  0  0  0
    4.7150   -1.2398   -0.1857 H   0  0  0  0  0  0  0  0  0  0  0  0
    3.3226   -2.1374   -0.9495 H   0  0  0  0  0  0  0  0  0  0  0  0
    2.9553   -0.0640   -1.7784 H   0  0  0  0  0  0  0  0  0  0  0  0
    3.7831    0.7939   -0.4658 H   0  0  0  0  0  0  0  0  0  0  0  0
   -1.7438    1.0282   -1.5064 H   0  0  0  0  0  0  0  0  0  0  0  0
   -1.9964    2.4356    0.9725 H   0  0  0  0  0  0  0  0  0  0  0  0
   -2.8401    0.0324    1.1894 H   0  0  0  0  0  0  0  0  0  0  0  0
   -1.2050   -1.3488   -0.4709 H   0  0  0  0  0  0  0  0  0  0  0  0
   -2.7592   -1.6361   -1.3433 H   0  0  0  0  0  0  0  0  0  0  0  0
   -2.5715   -2.1414    0.3979 H   0  0  0  0  0  0  0  0  0  0  0  0
   -4.1844    1.2641   -0.3988 H   0  0  0  0  0  0  0  0  0  0  0  0
   -0.3851    0.8429    2.2858 H   0  0  0  0  0  0  0  0  0  0  0  0
    2.1378    0.2925    2.1121 H   0  0  0  0  0  0  0  0  0  0  0  0
  1  2  1  0
  2  3  1  0
  3  4  2  0
  4  5  2  0
  5  6  1  0
  6  7  1  0
  6  8  1  0
  8  9  1  0
  8 10  1  0
  5 11  1  0
 11 12  1  0
 12  3  1  0
  1 13  1  0
  1 14  1  0
  1 15  1  0
  2 16  1  0
  2 17  1  0
  6 18  1  6
  7 19  1  0
  8 20  1  1
  9 21  1  0
  9 22  1  0
  9 23  1  0
 10 24  1  0
 11 25  1  0
 12 26  1  0
M  CHG  1   3   1
M  END
$$$$

     RDKit          3D

 26 26  0  0  0  0  0  0  0  0999 V2000
    3.7907    0.1539    1.1249 C   0  0  0  0  0  0  0  0  0  0  0  0
    3.1372    0.8104   -0.0566 C   0  0  0  0  0  0  0  0  0  0  0  0
    1.8050    0.2396   -0.3073 N   0  0  0  0  0  4  0  0  0  0  0  0
    0.6921    0.8510   -0.3017 C   0  0  0  0  0  0  0  0  0  0  0  0
   -0.3496    0.1936   -0.7146 C   0  0  0  0  0  0  0  0  0  0  0  0
   -1.6581    0.7813   -0.9406 C   0  0  2  0  0  0  0  0  0  0  0  0
   -1.6219    2.1415   -0.6493 O   0  0  0  0  0  0  0  0  0  0  0  0
   -2.7755    0.1566   -0.1516 C   0  0  2  0  0  0  0  0  0  0  0  0
   -2.7036    0.4461    1.3147 C   0  0  0  0  0  0  0  0  0  0  0  0
   -2.8971   -1.2025   -0.3709 O   0  0  0  0  0  0  0  0  0  0  0  0
    0.1212   -1.1474   -0.8672 N   0  0  0  0  0  0  0  0  0  0  0  0
    1.4990   -1.0928   -0.6022 N   0  0  0  0  0  0  0  0  0  0  0  0
    3.1510   -0.7165    1.4210 H   0  0  0  0  0  0  0  0  0  0  0  0
    4.8122   -0.2103    0.8221 H   0  0  0  0  0  0  0  0  0  0  0  0
    3.8813    0.8846    1.9781 H   0  0  0  0  0  0  0  0  0  0  0  0
    3.7804    0.6791   -0.9743 H   0  0  0  0  0  0  0  0  0  0  0  0
    3.0080    1.8956    0.0569 H   0  0  0  0  0  0  0  0  0  0  0  0
   -1.9864    0.7268   -2.0211 H   0  0  0  0  0  0  0  0  0  0  0  0
   -2.5061    2.5000   -0.3783 H   0  0  0  0  0  0  0  0  0  0  0  0
   -3.7203    0.6195   -0.5320 H   0  0  0  0  0  0  0  0  0  0  0  0
   -2.1632    1.3699    1.5609 H   0  0  0  0  0  0  0  0  0  0  0  0
   -3.7445    0.5711    1.7221 H   0  0  0  0  0  0  0  0  0  0  0  0
   -2.2824   -0.4129    1.9073 H   0  0  0  0  0  0  0  0  0  0  0  0
   -2.9854   -1.4581   -1.3007 H   0  0  0  0  0  0  0  0  0  0  0  0
   -0.4600   -1.9575   -1.1197 H   0  0  0  0  0  0  0  0  0  0  0  0
    2.1757   -1.8924   -0.6198 H   0  0  0  0  0  0  0  0  0  0  0  0
  1  2  1  0
  2  3  1  0
  3  4  2  0
  4  5  2  0
  5  6  1  0
  6  7  1  0
  6  8  1  0
  8  9  1  0
  8 10  1  0
  5 11  1  0
 11 12  1  0
 12  3  1  0
  1 13  1  0
  1 14  1  0
  1 15  1  0
  2 16  1  0
  2 17  1  0
  6 18  1  6
  7 19  1  0
  8 20  1  6
  9 21  1  0
  9 22  1  0
  9 23  1  0
 10 24  1  0
 11 25  1  0
 12 26  1  0
M  CHG  1   3   1
M  END
$$$$

     RDKit          3D

 26 26  0  0  0  0  0  0  0  0999 V2000
    4.0290    0.4634   -0.0479 C   0  0  0  0  0  0  0  0  0  0  0  0
    2.8783    0.7259    0.8918 C   0  0  0  0  0  0  0  0  0  0  0  0
    1.6313    0.1841    0.3980 N   0  0  0  0  0  4  0  0  0  0  0  0
    0.5399    0.7722    0.1182 C   0  0  0  0  0  0  0  0  0  0  0  0
   -0.3821    0.0479   -0.4534 C   0  0  0  0  0  0  0  0  0  0  0  0
   -1.6758    0.4221   -1.0316 C   0  0  2  0  0  0  0  0  0  0  0  0
   -1.9569    1.7636   -0.9562 O   0  0  0  0  0  0  0  0  0  0  0  0
   -2.8220   -0.3640   -0.3872 C   0  0  2  0  0  0  0  0  0  0  0  0
   -3.0122    0.1057    1.0530 C   0  0  0  0  0  0  0  0  0  0  0  0
   -2.5940   -1.7303   -0.4334 O   0  0  0  0  0  0  0  0  0  0  0  0
    0.1196   -1.2823   -0.4197 N   0  0  0  0  0  0  0  0  0  0  0  0
    1.4187   -1.1720    0.1325 N   0  0  0  0  0  0  0  0  0  0  0  0
    4.9653    0.6026    0.5520 H   0  0  0  0  0  0  0  0  0  0  0  0
    4.0611    1.2207   -0.8628 H   0  0  0  0  0  0  0  0  0  0  0  0
    4.0521   -0.5711   -0.4303 H   0  0  0  0  0  0  0  0  0  0  0  0
    2.8117    1.8287    1.0144 H   0  0  0  0  0  0  0  0  0  0  0  0
    3.1566    0.3158    1.8777 H   0  0  0  0  0  0  0  0  0  0  0  0
   -1.6817    0.1379   -2.1129 H   0  0  0  0  0  0  0  0  0  0  0  0
   -1.2358    2.3070   -0.5493 H   0  0  0  0  0  0  0  0  0  0  0  0
   -3.7641   -0.1300   -0.9229 H   0  0  0  0  0  0  0  0  0  0  0  0
   -2.1342    0.6955    1.3900 H   0  0  0  0  0  0  0  0  0  0  0  0
   -3.9049    0.7403    1.1705 H   0  0  0  0  0  0  0  0  0  0  0  0
   -3.1615   -0.8016    1.6662 H   0  0  0  0  0  0  0  0  0  0  0  0
   -3.1205   -2.1656    0.2958 H   0  0  0  0  0  0  0  0  0  0  0  0
   -0.3179   -2.1763   -0.7179 H   0  0  0  0  0  0  0  0  0  0  0  0
    2.1002   -1.9402    0.3141 H   0  0  0  0  0  0  0  0  0  0  0  0
  1  2  1  0
  2  3  1  0
  3  4  2  0
  4  5  2  0
  5  6  1  0
  6  7  1  0
  6  8  1  0
  8  9  1  0
  8 10  1  0
  5 11  1  0
 11 12  1  0
 12  3  1  0
  1 13  1  0
  1 14  1  0
  1 15  1  0
  2 16  1  0
  2 17  1  0
  6 18  1  6
  7 19  1  0
  8 20  1  6
  9 21  1  0
  9 22  1  0
  9 23  1  0
 10 24  1  0
 11 25  1  0
 12 26  1  0
M  CHG  1   3   1
M  END
$$$$

     RDKit          3D

 26 26  0  0  0  0  0  0  0  0999 V2000
    4.0437   -0.3522   -0.8532 C   0  0  0  0  0  0  0  0  0  0  0  0
    3.3406    0.4954    0.1673 C   0  0  0  0  0  0  0  0  0  0  0  0
    1.9833    0.0362    0.4351 N   0  0  0  0  0  4  0  0  0  0  0  0
    0.9153    0.7031    0.2646 C   0  0  0  0  0  0  0  0  0  0  0  0
   -0.2078    0.1247    0.5777 C   0  0  0  0  0  0  0  0  0  0  0  0
   -1.5412    0.7220    0.4736 C   0  0  2  0  0  0  0  0  0  0  0  0
   -2.2039    0.7832    1.7015 O   0  0  0  0  0  0  0  0  0  0  0  0
   -2.4386    0.0139   -0.5110 C   0  0  2  0  0  0  0  0  0  0  0  0
   -3.7374    0.8225   -0.5973 C   0  0  0  0  0  0  0  0  0  0  0  0
   -2.7609   -1.2633   -0.1378 O   0  0  0  0  0  0  0  0  0  0  0  0
    0.1745   -1.1808    1.0277 N   0  0  0  0  0  0  0  0  0  0  0  0
    1.5698   -1.2057    0.9253 N   0  0  0  0  0  0  0  0  0  0  0  0
    5.1413   -0.1573   -0.7465 H   0  0  0  0  0  0  0  0  0  0  0  0
    3.7035   -0.1618   -1.8904 H   0  0  0  0  0  0  0  0  0  0  0  0
    3.9105   -1.4209   -0.5702 H   0  0  0  0  0  0  0  0  0  0  0  0
    3.3469    1.5489   -0.1337 H   0  0  0  0  0  0  0  0  0  0  0  0
    3.9654    0.4433    1.1045 H   0  0  0  0  0  0  0  0  0  0  0  0
   -1.4425    1.7681    0.1239 H   0  0  0  0  0  0  0  0  0  0  0  0
   -1.6161    0.4548    2.4265 H   0  0  0  0  0  0  0  0  0  0  0  0
   -1.9878   -0.0041   -1.5167 H   0  0  0  0  0  0  0  0  0  0  0  0
   -4.5212    0.3797    0.0724 H   0  0  0  0  0  0  0  0  0  0  0  0
   -4.1314    0.8646   -1.6185 H   0  0  0  0  0  0  0  0  0  0  0  0
   -3.5789    1.8563   -0.2079 H   0  0  0  0  0  0  0  0  0  0  0  0
   -3.6913   -1.3445    0.1228 H   0  0  0  0  0  0  0  0  0  0  0  0
   -0.4605   -1.9362    1.3565 H   0  0  0  0  0  0  0  0  0  0  0  0
    2.2247   -1.9897    1.1615 H   0  0  0  0  0  0  0  0  0  0  0  0
  1  2  1  0
  2  3  1  0
  3  4  2  0
  4  5  2  0
  5  6  1  0
  6  7  1  0
  6  8  1  0
  8  9  1  0
  8 10  1  0
  5 11  1  0
 11 12  1  0
 12  3  1  0
  1 13  1  0
  1 14  1  0
  1 15  1  0
  2 16  1  0
  2 17  1  0
  6 18  1  6
  7 19  1  0
  8 20  1  6
  9 21  1  0
  9 22  1  0
  9 23  1  0
 10 24  1  0
 11 25  1  0
 12 26  1  0
M  CHG  1   3   1
M  END
$$$$

     RDKit          3D

 26 26  0  0  0  0  0  0  0  0999 V2000
    3.8929   -0.0777    1.1894 C   0  0  0  0  0  0  0  0  0  0  0  0
    3.0123   -0.9346    0.3086 C   0  0  0  0  0  0  0  0  0  0  0  0
    1.8607   -0.1748   -0.1300 N   0  0  0  0  0  4  0  0  0  0  0  0
    0.6111   -0.4243    0.0750 C   0  0  0  0  0  0  0  0  0  0  0  0
   -0.2195    0.4343   -0.4455 C   0  0  0  0  0  0  0  0  0  0  0  0
   -1.7054    0.4567   -0.4131 C   0  0  2  0  0  0  0  0  0  0  0  0
   -2.1679    1.6185    0.1992 O   0  0  0  0  0  0  0  0  0  0  0  0
   -2.2698   -0.7261    0.3257 C   0  0  2  0  0  0  0  0  0  0  0  0
   -3.7804   -0.6915    0.2295 C   0  0  0  0  0  0  0  0  0  0  0  0
   -1.8957   -0.7566    1.6553 O   0  0  0  0  0  0  0  0  0  0  0  0
    0.6047    1.4001   -1.0863 N   0  0  0  0  0  0  0  0  0  0  0  0
    1.9462    1.0011   -0.8789 N   0  0  0  0  0  0  0  0  0  0  0  0
    4.5228    0.6146    0.5866 H   0  0  0  0  0  0  0  0  0  0  0  0
    4.5435   -0.7235    1.8112 H   0  0  0  0  0  0  0  0  0  0  0  0
    3.2861    0.5367    1.8821 H   0  0  0  0  0  0  0  0  0  0  0  0
    2.7305   -1.8228    0.9002 H   0  0  0  0  0  0  0  0  0  0  0  0
    3.5941   -1.2428   -0.6049 H   0  0  0  0  0  0  0  0  0  0  0  0
   -2.0962    0.4697   -1.4486 H   0  0  0  0  0  0  0  0  0  0  0  0
   -2.5287    2.2794   -0.4442 H   0  0  0  0  0  0  0  0  0  0  0  0
   -1.9160   -1.6818   -0.1605 H   0  0  0  0  0  0  0  0  0  0  0  0
   -4.2598   -0.9313    1.2075 H   0  0  0  0  0  0  0  0  0  0  0  0
   -4.1450   -1.4956   -0.4712 H   0  0  0  0  0  0  0  0  0  0  0  0
   -4.1373    0.3107   -0.0905 H   0  0  0  0  0  0  0  0  0  0  0  0
   -2.6443   -1.1631    2.1647 H   0  0  0  0  0  0  0  0  0  0  0  0
    0.3434    2.2509   -1.6171 H   0  0  0  0  0  0  0  0  0  0  0  0
    2.8174    1.4737   -1.2084 H   0  0  0  0  0  0  0  0  0  0  0  0
  1  2  1  0
  2  3  1  0
  3  4  2  0
  4  5  2  0
  5  6  1  0
  6  7  1  0
  6  8  1  0
  8  9  1  0
  8 10  1  0
  5 11  1  0
 11 12  1  0
 12  3  1  0
  1 13  1  0
  1 14  1  0
  1 15  1  0
  2 16  1  0
  2 17  1  0
  6 18  1  6
  7 19  1  0
  8 20  1  6
  9 21  1  0
  9 22  1  0
  9 23  1  0
 10 24  1  0
 11 25  1  0
 12 26  1  0
M  CHG  1   3   1
M  END
$$$$

     RDKit          3D

 26 26  0  0  0  0  0  0  0  0999 V2000
    3.4792    0.6945    0.9451 C   0  0  0  0  0  0  0  0  0  0  0  0
    3.2601   -0.5724    0.1864 C   0  0  0  0  0  0  0  0  0  0  0  0
    1.9477   -0.5924   -0.4286 N   0  0  0  0  0  4  0  0  0  0  0  0
    1.0598    0.3123   -0.3679 C   0  0  0  0  0  0  0  0  0  0  0  0
   -0.1364   -0.0175   -0.7721 C   0  0  0  0  0  0  0  0  0  0  0  0
   -1.4277    0.6812   -0.6066 C   0  0  2  0  0  0  0  0  0  0  0  0
   -1.2231    1.8548    0.0999 O   0  0  0  0  0  0  0  0  0  0  0  0
   -2.3569   -0.2433    0.1804 C   0  0  2  0  0  0  0  0  0  0  0  0
   -3.6235    0.5357    0.4729 C   0  0  0  0  0  0  0  0  0  0  0  0
   -1.7615   -0.5264    1.4000 O   0  0  0  0  0  0  0  0  0  0  0  0
    0.0426   -1.2698   -1.4542 N   0  0  0  0  0  0  0  0  0  0  0  0
    1.3942   -1.6078   -1.2108 N   0  0  0  0  0  0  0  0  0  0  0  0
    3.1564    0.5106    2.0116 H   0  0  0  0  0  0  0  0  0  0  0  0
    2.8454    1.5244    0.5728 H   0  0  0  0  0  0  0  0  0  0  0  0
    4.5473    0.9842    0.9984 H   0  0  0  0  0  0  0  0  0  0  0  0
    4.0720   -0.6951   -0.5607 H   0  0  0  0  0  0  0  0  0  0  0  0
    3.3117   -1.4671    0.8425 H   0  0  0  0  0  0  0  0  0  0  0  0
   -1.8807    0.9280   -1.5916 H   0  0  0  0  0  0  0  0  0  0  0  0
   -1.1962    2.6192   -0.5373 H   0  0  0  0  0  0  0  0  0  0  0  0
   -2.5853   -1.1423   -0.4123 H   0  0  0  0  0  0  0  0  0  0  0  0
   -3.4715    1.1199    1.4079 H   0  0  0  0  0  0  0  0  0  0  0  0
   -3.8421    1.1959   -0.3901 H   0  0  0  0  0  0  0  0  0  0  0  0
   -4.4537   -0.1961    0.5954 H   0  0  0  0  0  0  0  0  0  0  0  0
   -2.3600   -0.3760    2.1753 H   0  0  0  0  0  0  0  0  0  0  0  0
   -0.6713   -1.7996   -2.0017 H   0  0  0  0  0  0  0  0  0  0  0  0
    1.8737   -2.4551   -1.5548 H   0  0  0  0  0  0  0  0  0  0  0  0
  1  2  1  0
  2  3  1  0
  3  4  2  0
  4  5  2  0
  5  6  1  0
  6  7  1  0
  6  8  1  0
  8  9  1  0
  8 10  1  0
  5 11  1  0
 11 12  1  0
 12  3  1  0
  1 13  1  0
  1 14  1  0
  1 15  1  0
  2 16  1  0
  2 17  1  0
  6 18  1  6
  7 19  1  0
  8 20  1  6
  9 21  1  0
  9 22  1  0
  9 23  1  0
 10 24  1  0
 11 25  1  0
 12 26  1  0
M  CHG  1   3   1
M  END
$$$$
