
     RDKit          3D

 23 24  0  0  0  0  0  0  0  0999 V2000
    3.9262    0.5408    0.9637 C   0  0  0  0  0  0  0  0  0  0  0  0
    2.9878    0.0123   -0.0119 N   0  0  0  0  0  0  0  0  0  0  0  0
    3.2575   -0.4663   -1.3059 N   0  0  0  0  0  0  0  0  0  0  0  0
    2.1826   -1.0349   -1.7383 C   0  0  0  0  0  0  0  0  0  0  0  0
    1.1008   -0.6944   -1.0853 C   0  0  0  0  0  0  0  0  0  0  0  0
   -0.2761   -0.8615   -1.5286 C   0  0  0  0  0  0  0  0  0  0  0  0
   -0.4778   -1.3893   -2.6592 O   0  0  0  0  0  0  0  0  0  0  0  0
   -1.3754   -0.4551   -0.7400 N   0  0  0  0  0  0  0  0  0  0  0  0
   -2.8075   -0.4785   -0.8804 C   0  0  0  0  0  0  0  0  0  0  0  0
   -3.0231    0.3231    0.3581 C   0  0  0  0  0  0  0  0  0  0  0  0
   -3.4402    1.6307    0.1150 O   0  0  0  0  0  0  0  0  0  0  0  0
   -1.5299    0.1567    0.5406 C   0  0  0  0  0  0  0  0  0  0  0  0
    1.5886   -0.1367    0.1287 N   0  0  0  0  0  0  0  0  0  0  0  0
    4.9474    0.2601    0.6294 H   0  0  0  0  0  0  0  0  0  0  0  0
    3.8957    1.6587    0.9416 H   0  0  0  0  0  0  0  0  0  0  0  0
    3.7877    0.1174    1.9620 H   0  0  0  0  0  0  0  0  0  0  0  0
   -3.1791   -1.5231   -0.7266 H   0  0  0  0  0  0  0  0  0  0  0  0
   -3.1329   -0.0172   -1.8356 H   0  0  0  0  0  0  0  0  0  0  0  0
   -3.6170   -0.1773    1.1549 H   0  0  0  0  0  0  0  0  0  0  0  0
   -3.5564    1.7416   -0.8614 H   0  0  0  0  0  0  0  0  0  0  0  0
   -1.0755    1.1715    0.6344 H   0  0  0  0  0  0  0  0  0  0  0  0
   -1.2323   -0.4936    1.3686 H   0  0  0  0  0  0  0  0  0  0  0  0
    1.0490    0.1152    0.9563 H   0  0  0  0  0  0  0  0  0  0  0  0
  1  2  1  0
  2  3  1  0
  3  4  2  0
  4  5  2  0
  5  6  1  0
  6  7  2  0
  6  8  1  0
  8  9  1  0
  9 10  1  0
 10 11  1  0
 10 12  1  0
  5 13  1  0
 13  2  1  0
 12  8  1  0
  1 14  1  0
  1 15  1  0
  1 16  1  0
  9 17  1  0
  9 18  1  0
 10 19  1  0
 11 20  1  0
 12 21  1  0
 12 22  1  0
 13 23  1  0
M  END
$$$$

     RDKit          3D

 23 24  0  0  0  0  0  0  0  0999 V2000
    4.5530    0.4214   -0.1593 C   0  0  0  0  0  0  0  0  0  0  0  0
    3.1005    0.3836   -0.1555 N   0  0  0  0  0  0  0  0  0  0  0  0
    2.1996    1.3503   -0.6038 N   0  0  0  0  0  0  0  0  0  0  0  0
    1.0335    0.8993   -0.3843 C   0  0  0  0  0  0  0  0  0  0  0  0
    0.9707   -0.2932    0.1330 C   0  0  0  0  0  0  0  0  0  0  0  0
   -0.2443   -1.0703    0.4525 C   0  0  0  0  0  0  0  0  0  0  0  0
   -0.1768   -2.2147    0.9508 O   0  0  0  0  0  0  0  0  0  0  0  0
   -1.4966   -0.4689    0.1723 N   0  0  0  0  0  0  0  0  0  0  0  0
   -2.8704   -0.8977    0.3381 C   0  0  0  0  0  0  0  0  0  0  0  0
   -3.3347    0.5298    0.2493 C   0  0  0  0  0  0  0  0  0  0  0  0
   -4.3539    0.7010   -0.6838 O   0  0  0  0  0  0  0  0  0  0  0  0
   -1.9999    0.7737   -0.3753 C   0  0  0  0  0  0  0  0  0  0  0  0
    2.3266   -0.6762    0.3198 N   0  0  0  0  0  0  0  0  0  0  0  0
    4.9359    1.2541   -0.7553 H   0  0  0  0  0  0  0  0  0  0  0  0
    4.9678   -0.5155   -0.6062 H   0  0  0  0  0  0  0  0  0  0  0  0
    4.9041    0.4454    0.8914 H   0  0  0  0  0  0  0  0  0  0  0  0
   -2.9873   -1.3264    1.3648 H   0  0  0  0  0  0  0  0  0  0  0  0
   -3.2575   -1.5550   -0.4654 H   0  0  0  0  0  0  0  0  0  0  0  0
   -3.5120    0.9739    1.2349 H   0  0  0  0  0  0  0  0  0  0  0  0
   -3.9928    0.5064   -1.5879 H   0  0  0  0  0  0  0  0  0  0  0  0
   -1.4279    1.6365    0.0208 H   0  0  0  0  0  0  0  0  0  0  0  0
   -1.9956    0.7208   -1.4788 H   0  0  0  0  0  0  0  0  0  0  0  0
    2.6582   -1.5782    0.7334 H   0  0  0  0  0  0  0  0  0  0  0  0
  1  2  1  0
  2  3  1  0
  3  4  2  0
  4  5  2  0
  5  6  1  0
  6  7  2  0
  6  8  1  0
  8  9  1  0
  9 10  1  0
 10 11  1  0
 10 12  1  0
  5 13  1  0
 13  2  1  0
 12  8  1  0
  1 14  1  0
  1 15  1  0
  1 16  1  0
  9 17  1  0
  9 18  1  0
 10 19  1  0
 11 20  1  0
 12 21  1  0
 12 22  1  0
 13 23  1  0
M  END
$$$$

     RDKit          3D

 23 24  0  0  0  0  0  0  0  0999 V2000
    4.1361    0.6435   -0.6243 C   0  0  0  0  0  0  0  0  0  0  0  0
    3.0642    0.0812    0.1262 N   0  0  0  0  0  0  0  0  0  0  0  0
    3.1395   -0.4164    1.4268 N   0  0  0  0  0  0  0  0  0  0  0  0
    2.0294   -1.0374    1.6504 C   0  0  0  0  0  0  0  0  0  0  0  0
    1.0638   -0.6950    0.8404 C   0  0  0  0  0  0  0  0  0  0  0  0
   -0.3369   -0.9131    1.0929 C   0  0  0  0  0  0  0  0  0  0  0  0
   -0.6180   -1.5028    2.2038 O   0  0  0  0  0  0  0  0  0  0  0  0
   -1.4051   -0.5514    0.2597 N   0  0  0  0  0  0  0  0  0  0  0  0
   -1.5841    0.1001   -0.9979 C   0  0  0  0  0  0  0  0  0  0  0  0
   -2.9012    0.6305   -0.3999 C   0  0  0  0  0  0  0  0  0  0  0  0
   -3.9095    0.8168   -1.2986 O   0  0  0  0  0  0  0  0  0  0  0  0
   -2.8403   -0.6957    0.3077 C   0  0  0  0  0  0  0  0  0  0  0  0
    1.7319   -0.0948   -0.2583 N   0  0  0  0  0  0  0  0  0  0  0  0
    4.0083    0.4748   -1.7199 H   0  0  0  0  0  0  0  0  0  0  0  0
    5.1399    0.2204   -0.3404 H   0  0  0  0  0  0  0  0  0  0  0  0
    4.2518    1.7522   -0.4804 H   0  0  0  0  0  0  0  0  0  0  0  0
   -0.9030    0.8900   -1.3101 H   0  0  0  0  0  0  0  0  0  0  0  0
   -1.8001   -0.6766   -1.7871 H   0  0  0  0  0  0  0  0  0  0  0  0
   -2.6448    1.4888    0.2615 H   0  0  0  0  0  0  0  0  0  0  0  0
   -4.4817    1.5672   -0.9664 H   0  0  0  0  0  0  0  0  0  0  0  0
   -3.1741   -1.5204   -0.3686 H   0  0  0  0  0  0  0  0  0  0  0  0
   -3.2869   -0.7197    1.3182 H   0  0  0  0  0  0  0  0  0  0  0  0
    1.3208    0.1579   -1.1601 H   0  0  0  0  0  0  0  0  0  0  0  0
  1  2  1  0
  2  3  1  0
  3  4  2  0
  4  5  2  0
  5  6  1  0
  6  7  2  0
  6  8  1  0
  8  9  1  0
  9 10  1  0
 10 11  1  0
 10 12  1  0
  5 13  1  0
 13  2  1  0
 12  8  1  0
  1 14  1  0
  1 15  1  0
  1 16  1  0
  9 17  1  0
  9 18  1  0
 10 19  1  0
 11 20  1  0
 12 21  1  0
 12 22  1  0
 13 23  1  0
M  END
$$$$

     RDKit          3D

 23 24  0  0  0  0  0  0  0  0999 V2000
    3.9765    0.9016    0.7848 C   0  0  0  0  0  0  0  0  0  0  0  0
    3.0148   -0.1163    0.4242 N   0  0  0  0  0  0  0  0  0  0  0  0
    3.2608   -1.4799    0.1749 N   0  0  0  0  0  0  0  0  0  0  0  0
    2.1116   -1.9860   -0.1071 C   0  0  0  0  0  0  0  0  0  0  0  0
    1.0881   -1.1819   -0.0935 C   0  0  0  0  0  0  0  0  0  0  0  0
   -0.2924   -1.5631   -0.3836 C   0  0  0  0  0  0  0  0  0  0  0  0
   -0.5461   -2.7826   -0.6788 O   0  0  0  0  0  0  0  0  0  0  0  0
   -1.3697   -0.6610   -0.3575 N   0  0  0  0  0  0  0  0  0  0  0  0
   -2.7809   -0.7156   -0.5837 C   0  0  0  0  0  0  0  0  0  0  0  0
   -2.9839    0.7195   -0.2208 C   0  0  0  0  0  0  0  0  0  0  0  0
   -3.4129    1.5497   -1.2769 O   0  0  0  0  0  0  0  0  0  0  0  0
   -1.4822    0.7504   -0.0771 C   0  0  0  0  0  0  0  0  0  0  0  0
    1.6226    0.0868    0.2547 N   0  0  0  0  0  0  0  0  0  0  0  0
    4.1490    1.5871   -0.0449 H   0  0  0  0  0  0  0  0  0  0  0  0
    3.5773    1.5235    1.6366 H   0  0  0  0  0  0  0  0  0  0  0  0
    4.9151    0.4374    1.1240 H   0  0  0  0  0  0  0  0  0  0  0  0
   -3.1058   -0.8986   -1.6270 H   0  0  0  0  0  0  0  0  0  0  0  0
   -3.3397   -1.3959    0.0865 H   0  0  0  0  0  0  0  0  0  0  0  0
   -3.5468    0.9157    0.7009 H   0  0  0  0  0  0  0  0  0  0  0  0
   -3.7555    0.9113   -1.9672 H   0  0  0  0  0  0  0  0  0  0  0  0
   -1.2247    1.0095    0.9860 H   0  0  0  0  0  0  0  0  0  0  0  0
   -0.9630    1.4188   -0.7974 H   0  0  0  0  0  0  0  0  0  0  0  0
    1.0875    0.9697    0.3588 H   0  0  0  0  0  0  0  0  0  0  0  0
  1  2  1  0
  2  3  1  0
  3  4  2  0
  4  5  2  0
  5  6  1  0
  6  7  2  0
  6  8  1  0
  8  9  1  0
  9 10  1  0
 10 11  1  0
 10 12  1  0
  5 13  1  0
 13  2  1  0
 12  8  1  0
  1 14  1  0
  1 15  1  0
  1 16  1  0
  9 17  1  0
  9 18  1  0
 10 19  1  0
 11 20  1  0
 12 21  1  0
 12 22  1  0
 13 23  1  0
M  END
$$$$

     RDKit          3D

 23 24  0  0  0  0  0  0  0  0999 V2000
    3.8714    0.4644   -1.2778 C   0  0  0  0  0  0  0  0  0  0  0  0
    2.9699   -0.3655   -0.5027 N   0  0  0  0  0  0  0  0  0  0  0  0
    3.2050   -1.6130    0.0965 N   0  0  0  0  0  0  0  0  0  0  0  0
    2.1848   -1.8382    0.8567 C   0  0  0  0  0  0  0  0  0  0  0  0
    1.1343   -1.1234    0.5653 C   0  0  0  0  0  0  0  0  0  0  0  0
   -0.2584   -1.3619    0.9377 C   0  0  0  0  0  0  0  0  0  0  0  0
   -0.5099   -2.3750    1.6258 O   0  0  0  0  0  0  0  0  0  0  0  0
   -1.3146   -0.5077    0.5579 N   0  0  0  0  0  0  0  0  0  0  0  0
   -2.7397   -0.5255    0.7946 C   0  0  0  0  0  0  0  0  0  0  0  0
   -2.9813    0.6142   -0.1449 C   0  0  0  0  0  0  0  0  0  0  0  0
   -3.6275    1.6960    0.4490 O   0  0  0  0  0  0  0  0  0  0  0  0
   -1.4785    0.7127   -0.1980 C   0  0  0  0  0  0  0  0  0  0  0  0
    1.6419   -0.0369   -0.2101 N   0  0  0  0  0  0  0  0  0  0  0  0
    3.3204    0.7447   -2.2202 H   0  0  0  0  0  0  0  0  0  0  0  0
    4.0464    1.4075   -0.7276 H   0  0  0  0  0  0  0  0  0  0  0  0
    4.7839   -0.0628   -1.5740 H   0  0  0  0  0  0  0  0  0  0  0  0
   -2.9444   -0.3268    1.8562 H   0  0  0  0  0  0  0  0  0  0  0  0
   -3.2469   -1.4408    0.4159 H   0  0  0  0  0  0  0  0  0  0  0  0
   -3.4847    0.3738   -1.1012 H   0  0  0  0  0  0  0  0  0  0  0  0
   -3.4328    2.5573    0.0006 H   0  0  0  0  0  0  0  0  0  0  0  0
   -1.0990    1.6139    0.2985 H   0  0  0  0  0  0  0  0  0  0  0  0
   -1.1491    0.5684   -1.2618 H   0  0  0  0  0  0  0  0  0  0  0  0
    1.1088    0.8245   -0.4919 H   0  0  0  0  0  0  0  0  0  0  0  0
  1  2  1  0
  2  3  1  0
  3  4  2  0
  4  5  2  0
  5  6  1  0
  6  7  2  0
  6  8  1  0
  8  9  1  0
  9 10  1  0
 10 11  1  0
 10 12  1  0
  5 13  1  0
 13  2  1  0
 12  8  1  0
  1 14  1  0
  1 15  1  0
  1 16  1  0
  9 17  1  0
  9 18  1  0
 10 19  1  0
 11 20  1  0
 12 21  1  0
 12 22  1  0
 13 23  1  0
M  END
$$$$

     RDKit          3D

 23 24  0  0  0  0  0  0  0  0999 V2000
    4.5246    0.0586    0.0789 C   0  0  0  0  0  0  0  0  0  0  0  0
    3.0780    0.0692    0.1328 N   0  0  0  0  0  0  0  0  0  0  0  0
    2.2208    0.7032    1.0394 N   0  0  0  0  0  0  0  0  0  0  0  0
    1.0252    0.4141    0.6745 C   0  0  0  0  0  0  0  0  0  0  0  0
    0.9147   -0.3390   -0.3771 C   0  0  0  0  0  0  0  0  0  0  0  0
   -0.3489   -0.7699   -0.9480 C   0  0  0  0  0  0  0  0  0  0  0  0
   -0.3913   -1.5117   -1.9857 O   0  0  0  0  0  0  0  0  0  0  0  0
   -1.5781   -0.3816   -0.3728 N   0  0  0  0  0  0  0  0  0  0  0  0
   -1.9281    0.4422    0.7897 C   0  0  0  0  0  0  0  0  0  0  0  0
   -3.3601    0.4004    0.3240 C   0  0  0  0  0  0  0  0  0  0  0  0
   -3.8333    1.5999   -0.2123 O   0  0  0  0  0  0  0  0  0  0  0  0
   -2.9613   -0.6383   -0.6968 C   0  0  0  0  0  0  0  0  0  0  0  0
    2.2483   -0.6063   -0.7857 N   0  0  0  0  0  0  0  0  0  0  0  0
    4.9113    0.5411    1.0033 H   0  0  0  0  0  0  0  0  0  0  0  0
    4.9119    0.5764   -0.8265 H   0  0  0  0  0  0  0  0  0  0  0  0
    4.8764   -0.9805    0.0418 H   0  0  0  0  0  0  0  0  0  0  0  0
   -1.4473    1.4487    0.7701 H   0  0  0  0  0  0  0  0  0  0  0  0
   -1.7216   -0.1203    1.7253 H   0  0  0  0  0  0  0  0  0  0  0  0
   -4.0554   -0.0110    1.0875 H   0  0  0  0  0  0  0  0  0  0  0  0
   -3.1292    2.2934   -0.1636 H   0  0  0  0  0  0  0  0  0  0  0  0
   -3.1493   -0.3569   -1.7539 H   0  0  0  0  0  0  0  0  0  0  0  0
   -3.3379   -1.6477   -0.4330 H   0  0  0  0  0  0  0  0  0  0  0  0
    2.5307   -1.1842   -1.5986 H   0  0  0  0  0  0  0  0  0  0  0  0
  1  2  1  0
  2  3  1  0
  3  4  2  0
  4  5  2  0
  5  6  1  0
  6  7  2  0
  6  8  1  0
  8  9  1  0
  9 10  1  0
 10 11  1  0
 10 12  1  0
  5 13  1  0
 13  2  1  0
 12  8  1  0
  1 14  1  0
  1 15  1  0
  1 16  1  0
  9 17  1  0
  9 18  1  0
 10 19  1  0
 11 20  1  0
 12 21  1  0
 12 22  1  0
 13 23  1  0
M  END
$$$$

     RDKit          3D

 23 24  0  0  0  0  0  0  0  0999 V2000
   -3.9835    0.3348    0.9373 C   0  0  0  0  0  0  0  0  0  0  0  0
   -3.0245   -0.0650   -0.0684 N   0  0  0  0  0  0  0  0  0  0  0  0
   -3.2283   -0.3317   -1.4332 N   0  0  0  0  0  0  0  0  0  0  0  0
   -2.1734   -0.9480   -1.8558 C   0  0  0  0  0  0  0  0  0  0  0  0
   -1.1005   -0.6558   -1.1391 C   0  0  0  0  0  0  0  0  0  0  0  0
    0.2927   -0.7168   -1.5703 C   0  0  0  0  0  0  0  0  0  0  0  0
    0.5034   -1.0994   -2.7719 O   0  0  0  0  0  0  0  0  0  0  0  0
    1.3744   -0.3805   -0.7366 N   0  0  0  0  0  0  0  0  0  0  0  0
    2.8034   -0.3584   -0.8999 C   0  0  0  0  0  0  0  0  0  0  0  0
    2.9380    0.4262    0.3603 C   0  0  0  0  0  0  0  0  0  0  0  0
    3.1472    1.7748    0.1439 O   0  0  0  0  0  0  0  0  0  0  0  0
    1.5105    0.0815    0.6153 C   0  0  0  0  0  0  0  0  0  0  0  0
   -1.6416   -0.2758    0.1223 N   0  0  0  0  0  0  0  0  0  0  0  0
   -4.9401   -0.2186    0.8602 H   0  0  0  0  0  0  0  0  0  0  0  0
   -4.2330    1.4149    0.8511 H   0  0  0  0  0  0  0  0  0  0  0  0
   -3.5611    0.1249    1.9327 H   0  0  0  0  0  0  0  0  0  0  0  0
    3.1673    0.2076   -1.8000 H   0  0  0  0  0  0  0  0  0  0  0  0
    3.2529   -1.3858   -0.8408 H   0  0  0  0  0  0  0  0  0  0  0  0
    3.6498   -0.0456    1.0775 H   0  0  0  0  0  0  0  0  0  0  0  0
    4.0874    1.9856    0.4410 H   0  0  0  0  0  0  0  0  0  0  0  0
    1.3427   -0.7003    1.3948 H   0  0  0  0  0  0  0  0  0  0  0  0
    0.9406    1.0077    0.8805 H   0  0  0  0  0  0  0  0  0  0  0  0
   -1.1243   -0.1763    1.0007 H   0  0  0  0  0  0  0  0  0  0  0  0
  1  2  1  0
  2  3  1  0
  3  4  2  0
  4  5  2  0
  5  6  1  0
  6  7  2  0
  6  8  1  0
  8  9  1  0
  9 10  1  0
 10 11  1  0
 10 12  1  0
  5 13  1  0
 13  2  1  0
 12  8  1  0
  1 14  1  0
  1 15  1  0
  1 16  1  0
  9 17  1  0
  9 18  1  0
 10 19  1  0
 11 20  1  0
 12 21  1  0
 12 22  1  0
 13 23  1  0
M  END
$$$$

     RDKit          3D

 23 24  0  0  0  0  0  0  0  0999 V2000
    3.9401   -0.8659    0.9829 C   0  0  0  0  0  0  0  0  0  0  0  0
    3.0174   -0.0267    0.2480 N   0  0  0  0  0  0  0  0  0  0  0  0
    3.3553    0.8536   -0.8097 N   0  0  0  0  0  0  0  0  0  0  0  0
    2.3321    1.6393   -0.8855 C   0  0  0  0  0  0  0  0  0  0  0  0
    1.2053    1.0357   -0.5415 C   0  0  0  0  0  0  0  0  0  0  0  0
   -0.1266    1.3001   -1.0508 C   0  0  0  0  0  0  0  0  0  0  0  0
   -0.2153    2.2306   -1.9244 O   0  0  0  0  0  0  0  0  0  0  0  0
   -1.2843    0.6004   -0.6381 N   0  0  0  0  0  0  0  0  0  0  0  0
   -1.6315   -0.4709    0.2625 C   0  0  0  0  0  0  0  0  0  0  0  0
   -2.8411   -0.7567   -0.6382 C   0  0  0  0  0  0  0  0  0  0  0  0
   -3.9513   -1.0848    0.1144 O   0  0  0  0  0  0  0  0  0  0  0  0
   -2.6928    0.7050   -0.9845 C   0  0  0  0  0  0  0  0  0  0  0  0
    1.6365    0.0801    0.4321 N   0  0  0  0  0  0  0  0  0  0  0  0
    4.8002   -1.1140    0.3253 H   0  0  0  0  0  0  0  0  0  0  0  0
    4.3384   -0.2505    1.8373 H   0  0  0  0  0  0  0  0  0  0  0  0
    3.4539   -1.7503    1.4103 H   0  0  0  0  0  0  0  0  0  0  0  0
   -1.9720   -0.1300    1.2685 H   0  0  0  0  0  0  0  0  0  0  0  0
   -0.9488   -1.3487    0.2715 H   0  0  0  0  0  0  0  0  0  0  0  0
   -2.5682   -1.4593   -1.4427 H   0  0  0  0  0  0  0  0  0  0  0  0
   -4.7439   -1.0406   -0.5058 H   0  0  0  0  0  0  0  0  0  0  0  0
   -2.8819    0.9510   -2.0502 H   0  0  0  0  0  0  0  0  0  0  0  0
   -3.2739    1.3161   -0.2616 H   0  0  0  0  0  0  0  0  0  0  0  0
    1.0524   -0.4136    1.1162 H   0  0  0  0  0  0  0  0  0  0  0  0
  1  2  1  0
  2  3  1  0
  3  4  2  0
  4  5  2  0
  5  6  1  0
  6  7  2  0
  6  8  1  0
  8  9  1  0
  9 10  1  0
 10 11  1  0
 10 12  1  0
  5 13  1  0
 13  2  1  0
 12  8  1  0
  1 14  1  0
  1 15  1  0
  1 16  1  0
  9 17  1  0
  9 18  1  0
 10 19  1  0
 11 20  1  0
 12 21  1  0
 12 22  1  0
 13 23  1  0
M  END
$$$$
