
     RDKit          3D

 22 23  0  0  0  0  0  0  0  0999 V2000
   -1.4975   -1.3080   -0.6537 C   0  0  0  0  0  0  0  0  0  0  0  0
   -1.6111   -0.0358   -0.0090 N   0  0  0  0  0  0  0  0  0  0  0  0
   -2.6105    0.8970   -0.3100 N   0  0  0  0  0  0  0  0  0  0  0  0
   -2.6567    1.6969    0.8148 N   0  0  0  0  0  0  0  0  0  0  0  0
   -1.4401    1.5439    1.4727 N   0  0  0  0  0  0  0  0  0  0  0  0
   -0.7833    0.5294    1.0193 C   0  0  0  0  0  0  0  0  0  0  0  0
    0.5303    0.0313    1.4408 C   0  0  1  0  0  0  0  0  0  0  0  0
    0.4857   -1.2774    1.9155 O   0  0  0  0  0  0  0  0  0  0  0  0
    1.5671    0.1896    0.3940 C   0  0  0  0  0  0  0  0  0  0  0  0
    1.3140    0.7191   -0.7736 C   0  0  0  0  0  0  0  0  0  0  0  0
    2.1300    0.5518   -1.7686 C   0  0  0  0  0  0  0  0  0  0  0  0
    3.2129   -0.1191   -1.6351 C   0  0  0  0  0  0  0  0  0  0  0  0
    3.7754   -0.2135   -0.4802 N   0  0  0  0  0  0  0  0  0  0  0  0
    2.9055   -0.2334    0.6119 N   0  0  0  0  0  0  0  0  0  0  0  0
   -0.4700   -1.7117   -0.6802 H   0  0  0  0  0  0  0  0  0  0  0  0
   -1.8070   -1.1833   -1.7308 H   0  0  0  0  0  0  0  0  0  0  0  0
   -2.2292   -1.9910   -0.2010 H   0  0  0  0  0  0  0  0  0  0  0  0
   -2.3976    1.4249   -1.1826 H   0  0  0  0  0  0  0  0  0  0  0  0
   -3.4846    2.2910    1.0766 H   0  0  0  0  0  0  0  0  0  0  0  0
    0.8713    0.6559    2.3118 H   0  0  0  0  0  0  0  0  0  0  0  0
    0.9489   -1.9069    1.2937 H   0  0  0  0  0  0  0  0  0  0  0  0
    3.2464   -0.5508    1.5444 H   0  0  0  0  0  0  0  0  0  0  0  0
  1  2  1  0
  2  3  1  0
  3  4  1  0
  4  5  1  0
  5  6  2  0
  6  7  1  0
  7  8  1  0
  7  9  1  0
  9 10  2  0
 10 11  2  0
 11 12  2  0
 12 13  2  0
 13 14  1  0
  6  2  1  0
 14  9  1  0
  1 15  1  0
  1 16  1  0
  1 17  1  0
  3 18  1  0
  4 19  1  0
  7 20  1  1
  8 21  1  0
 14 22  1  0
M  END
$$$$

     RDKit          3D

 22 23  0  0  0  0  0  0  0  0999 V2000
   -2.4843    1.4006    0.3588 C   0  0  0  0  0  0  0  0  0  0  0  0
   -1.8321    0.1449    0.1643 N   0  0  0  0  0  0  0  0  0  0  0  0
   -2.4862   -1.0905    0.1848 N   0  0  0  0  0  0  0  0  0  0  0  0
   -1.4944   -2.0461   -0.0588 N   0  0  0  0  0  0  0  0  0  0  0  0
   -0.3003   -1.3730   -0.2007 N   0  0  0  0  0  0  0  0  0  0  0  0
   -0.4611   -0.1156   -0.0780 C   0  0  0  0  0  0  0  0  0  0  0  0
    0.6005    0.8863   -0.1730 C   0  0  1  0  0  0  0  0  0  0  0  0
    0.7676    1.6482    0.9630 O   0  0  0  0  0  0  0  0  0  0  0  0
    1.8869    0.2689   -0.5585 C   0  0  0  0  0  0  0  0  0  0  0  0
    2.5268    0.6125   -1.6507 C   0  0  0  0  0  0  0  0  0  0  0  0
    3.5581   -0.0797   -1.9669 C   0  0  0  0  0  0  0  0  0  0  0  0
    4.0185   -1.0486   -1.2880 C   0  0  0  0  0  0  0  0  0  0  0  0
    3.5070   -1.4715   -0.1984 N   0  0  0  0  0  0  0  0  0  0  0  0
    2.4319   -0.7345    0.3048 N   0  0  0  0  0  0  0  0  0  0  0  0
   -3.4968    1.3376   -0.0941 H   0  0  0  0  0  0  0  0  0  0  0  0
   -1.9806    2.2547   -0.1261 H   0  0  0  0  0  0  0  0  0  0  0  0
   -2.6495    1.5753    1.4512 H   0  0  0  0  0  0  0  0  0  0  0  0
   -2.9344   -1.2217    1.1067 H   0  0  0  0  0  0  0  0  0  0  0  0
   -1.6942   -3.0611   -0.1100 H   0  0  0  0  0  0  0  0  0  0  0  0
    0.3185    1.5915   -0.9942 H   0  0  0  0  0  0  0  0  0  0  0  0
    0.1881    1.3847    1.7198 H   0  0  0  0  0  0  0  0  0  0  0  0
    2.0098   -0.8629    1.2444 H   0  0  0  0  0  0  0  0  0  0  0  0
  1  2  1  0
  2  3  1  0
  3  4  1  0
  4  5  1  0
  5  6  2  0
  6  7  1  0
  7  8  1  0
  7  9  1  0
  9 10  2  0
 10 11  2  0
 11 12  2  0
 12 13  2  0
 13 14  1  0
  6  2  1  0
 14  9  1  0
  1 15  1  0
  1 16  1  0
  1 17  1  0
  3 18  1  0
  4 19  1  0
  7 20  1  6
  8 21  1  0
 14 22  1  0
M  END
$$$$

     RDKit          3D

 22 23  0  0  0  0  0  0  0  0999 V2000
   -2.5342   -1.3647   -0.5096 C   0  0  0  0  0  0  0  0  0  0  0  0
   -1.9332   -0.1459   -0.0030 N   0  0  0  0  0  0  0  0  0  0  0  0
   -2.6633    0.9276    0.5035 N   0  0  0  0  0  0  0  0  0  0  0  0
   -1.8327    2.0107    0.1925 N   0  0  0  0  0  0  0  0  0  0  0  0
   -0.5306    1.5005    0.2012 N   0  0  0  0  0  0  0  0  0  0  0  0
   -0.5752    0.2002    0.0840 C   0  0  0  0  0  0  0  0  0  0  0  0
    0.5634   -0.7432    0.0475 C   0  0  1  0  0  0  0  0  0  0  0  0
    0.5653   -1.4505   -1.1514 O   0  0  0  0  0  0  0  0  0  0  0  0
    1.8170    0.0196    0.1380 C   0  0  0  0  0  0  0  0  0  0  0  0
    1.8257    1.3161    0.2326 C   0  0  0  0  0  0  0  0  0  0  0  0
    2.9362    1.9497    0.3305 C   0  0  0  0  0  0  0  0  0  0  0  0
    3.9566    1.3359    0.8145 C   0  0  0  0  0  0  0  0  0  0  0  0
    4.1770    0.0906    0.5840 N   0  0  0  0  0  0  0  0  0  0  0  0
    3.0716   -0.6499    0.1245 N   0  0  0  0  0  0  0  0  0  0  0  0
   -1.8851   -1.7899   -1.3079 H   0  0  0  0  0  0  0  0  0  0  0  0
   -3.5143   -1.1173   -0.9465 H   0  0  0  0  0  0  0  0  0  0  0  0
   -2.6760   -2.0416    0.3454 H   0  0  0  0  0  0  0  0  0  0  0  0
   -2.7520    0.8356    1.5323 H   0  0  0  0  0  0  0  0  0  0  0  0
   -2.1617    2.9833    0.0008 H   0  0  0  0  0  0  0  0  0  0  0  0
    0.4794   -1.4630    0.8724 H   0  0  0  0  0  0  0  0  0  0  0  0
    0.5302   -0.7754   -1.8744 H   0  0  0  0  0  0  0  0  0  0  0  0
    3.1360   -1.6286   -0.2109 H   0  0  0  0  0  0  0  0  0  0  0  0
  1  2  1  0
  2  3  1  0
  3  4  1  0
  4  5  1  0
  5  6  2  0
  6  7  1  0
  7  8  1  0
  7  9  1  0
  9 10  2  0
 10 11  2  0
 11 12  2  0
 12 13  2  0
 13 14  1  0
  6  2  1  0
 14  9  1  0
  1 15  1  0
  1 16  1  0
  1 17  1  0
  3 18  1  0
  4 19  1  0
  7 20  1  1
  8 21  1  0
 14 22  1  0
M  END
$$$$

     RDKit          3D

 22 23  0  0  0  0  0  0  0  0999 V2000
   -2.5990   -1.2573    0.4164 C   0  0  0  0  0  0  0  0  0  0  0  0
   -2.0102    0.0190    0.0628 N   0  0  0  0  0  0  0  0  0  0  0  0
   -2.6797    1.1816   -0.3162 N   0  0  0  0  0  0  0  0  0  0  0  0
   -1.6664    2.0911   -0.5914 N   0  0  0  0  0  0  0  0  0  0  0  0
   -0.4500    1.4829   -0.3313 N   0  0  0  0  0  0  0  0  0  0  0  0
   -0.6128    0.2721    0.0530 C   0  0  0  0  0  0  0  0  0  0  0  0
    0.4638   -0.6540    0.4089 C   0  0  1  0  0  0  0  0  0  0  0  0
    0.4817   -1.7919   -0.3902 O   0  0  0  0  0  0  0  0  0  0  0  0
    1.7815    0.0154    0.2988 C   0  0  0  0  0  0  0  0  0  0  0  0
    1.8314    1.2603   -0.0744 C   0  0  0  0  0  0  0  0  0  0  0  0
    2.8841    1.6465   -0.6954 C   0  0  0  0  0  0  0  0  0  0  0  0
    4.0187    1.0558   -0.5744 C   0  0  0  0  0  0  0  0  0  0  0  0
    4.1762   -0.0255    0.0767 N   0  0  0  0  0  0  0  0  0  0  0  0
    3.0172   -0.6274    0.5799 N   0  0  0  0  0  0  0  0  0  0  0  0
   -2.2894   -1.9753   -0.3889 H   0  0  0  0  0  0  0  0  0  0  0  0
   -2.2137   -1.6248    1.3955 H   0  0  0  0  0  0  0  0  0  0  0  0
   -3.7011   -1.1823    0.4549 H   0  0  0  0  0  0  0  0  0  0  0  0
   -3.2448    1.5160    0.5149 H   0  0  0  0  0  0  0  0  0  0  0  0
   -1.8371    3.0743   -0.9398 H   0  0  0  0  0  0  0  0  0  0  0  0
    0.2665   -1.0102    1.4486 H   0  0  0  0  0  0  0  0  0  0  0  0
    1.3792   -1.9654   -0.7706 H   0  0  0  0  0  0  0  0  0  0  0  0
    3.0038   -1.5008    1.1372 H   0  0  0  0  0  0  0  0  0  0  0  0
  1  2  1  0
  2  3  1  0
  3  4  1  0
  4  5  1  0
  5  6  2  0
  6  7  1  0
  7  8  1  0
  7  9  1  0
  9 10  2  0
 10 11  2  0
 11 12  2  0
 12 13  2  0
 13 14  1  0
  6  2  1  0
 14  9  1  0
  1 15  1  0
  1 16  1  0
  1 17  1  0
  3 18  1  0
  4 19  1  0
  7 20  1  1
  8 21  1  0
 14 22  1  0
M  END
$$$$

     RDKit          3D

 22 23  0  0  0  0  0  0  0  0999 V2000
   -2.5047   -1.3018   -0.2011 C   0  0  0  0  0  0  0  0  0  0  0  0
   -1.8847   -0.0281    0.0839 N   0  0  0  0  0  0  0  0  0  0  0  0
   -2.5414    1.1872    0.3122 N   0  0  0  0  0  0  0  0  0  0  0  0
   -1.5673    2.1078   -0.0872 N   0  0  0  0  0  0  0  0  0  0  0  0
   -0.2873    1.5247    0.0865 N   0  0  0  0  0  0  0  0  0  0  0  0
   -0.4913    0.2405    0.1882 C   0  0  0  0  0  0  0  0  0  0  0  0
    0.5129   -0.8383    0.3829 C   0  0  1  0  0  0  0  0  0  0  0  0
    0.4274   -1.7122   -0.7003 O   0  0  0  0  0  0  0  0  0  0  0  0
    1.9004   -0.3043    0.3871 C   0  0  0  0  0  0  0  0  0  0  0  0
    2.8105   -0.6753   -0.4712 C   0  0  0  0  0  0  0  0  0  0  0  0
    3.8700    0.0286   -0.5856 C   0  0  0  0  0  0  0  0  0  0  0  0
    4.1222    1.0580    0.1468 C   0  0  0  0  0  0  0  0  0  0  0  0
    3.5168    1.2673    1.2555 N   0  0  0  0  0  0  0  0  0  0  0  0
    2.2598    0.6579    1.3716 N   0  0  0  0  0  0  0  0  0  0  0  0
   -3.4414   -1.1045   -0.7978 H   0  0  0  0  0  0  0  0  0  0  0  0
   -2.8777   -1.7910    0.7421 H   0  0  0  0  0  0  0  0  0  0  0  0
   -1.8931   -1.9735   -0.8050 H   0  0  0  0  0  0  0  0  0  0  0  0
   -3.4356    1.2795   -0.1798 H   0  0  0  0  0  0  0  0  0  0  0  0
   -1.7592    3.0485   -0.4458 H   0  0  0  0  0  0  0  0  0  0  0  0
    0.3591   -1.3783    1.3273 H   0  0  0  0  0  0  0  0  0  0  0  0
    1.3205   -2.1516   -0.8105 H   0  0  0  0  0  0  0  0  0  0  0  0
    1.5841    0.8589    2.1168 H   0  0  0  0  0  0  0  0  0  0  0  0
  1  2  1  0
  2  3  1  0
  3  4  1  0
  4  5  1  0
  5  6  2  0
  6  7  1  0
  7  8  1  0
  7  9  1  0
  9 10  2  0
 10 11  2  0
 11 12  2  0
 12 13  2  0
 13 14  1  0
  6  2  1  0
 14  9  1  0
  1 15  1  0
  1 16  1  0
  1 17  1  0
  3 18  1  0
  4 19  1  0
  7 20  1  1
  8 21  1  0
 14 22  1  0
M  END
$$$$

     RDKit          3D

 22 23  0  0  0  0  0  0  0  0999 V2000
    2.5812    0.8331    0.9680 C   0  0  0  0  0  0  0  0  0  0  0  0
    1.8282    0.1703   -0.0742 N   0  0  0  0  0  0  0  0  0  0  0  0
    2.3400   -0.2822   -1.2904 N   0  0  0  0  0  0  0  0  0  0  0  0
    1.4628   -1.3248   -1.6087 N   0  0  0  0  0  0  0  0  0  0  0  0
    0.2331   -1.0462   -1.0040 N   0  0  0  0  0  0  0  0  0  0  0  0
    0.4433   -0.1562   -0.0888 C   0  0  0  0  0  0  0  0  0  0  0  0
   -0.5389    0.4786    0.8421 C   0  0  1  0  0  0  0  0  0  0  0  0
   -0.5695    1.8653    0.6595 O   0  0  0  0  0  0  0  0  0  0  0  0
   -1.8846   -0.0413    0.5123 C   0  0  0  0  0  0  0  0  0  0  0  0
   -2.5476   -0.6795    1.4220 C   0  0  0  0  0  0  0  0  0  0  0  0
   -3.6564   -1.2520    1.1032 C   0  0  0  0  0  0  0  0  0  0  0  0
   -3.9818   -1.4329   -0.1315 C   0  0  0  0  0  0  0  0  0  0  0  0
   -3.6098   -0.6319   -1.0585 N   0  0  0  0  0  0  0  0  0  0  0  0
   -2.4583    0.1407   -0.7612 N   0  0  0  0  0  0  0  0  0  0  0  0
    3.2357    1.6031    0.5157 H   0  0  0  0  0  0  0  0  0  0  0  0
    1.9349    1.2315    1.7526 H   0  0  0  0  0  0  0  0  0  0  0  0
    3.2755    0.0937    1.4540 H   0  0  0  0  0  0  0  0  0  0  0  0
    3.3192   -0.6309   -1.2045 H   0  0  0  0  0  0  0  0  0  0  0  0
    1.7061   -2.1679   -2.2043 H   0  0  0  0  0  0  0  0  0  0  0  0
   -0.3021    0.3006    1.8926 H   0  0  0  0  0  0  0  0  0  0  0  0
   -0.7700    2.1207   -0.2731 H   0  0  0  0  0  0  0  0  0  0  0  0
   -2.0410    0.8082   -1.4229 H   0  0  0  0  0  0  0  0  0  0  0  0
  1  2  1  0
  2  3  1  0
  3  4  1  0
  4  5  1  0
  5  6  2  0
  6  7  1  0
  7  8  1  0
  7  9  1  0
  9 10  2  0
 10 11  2  0
 11 12  2  0
 12 13  2  0
 13 14  1  0
  6  2  1  0
 14  9  1  0
  1 15  1  0
  1 16  1  0
  1 17  1  0
  3 18  1  0
  4 19  1  0
  7 20  1  1
  8 21  1  0
 14 22  1  0
M  END
$$$$

     RDKit          3D

 22 23  0  0  0  0  0  0  0  0999 V2000
   -1.7383   -0.1480   -1.3615 C   0  0  0  0  0  0  0  0  0  0  0  0
   -1.4161    0.5098   -0.1228 N   0  0  0  0  0  0  0  0  0  0  0  0
   -1.8210    1.7684    0.3325 N   0  0  0  0  0  0  0  0  0  0  0  0
   -1.8811    1.5599    1.7114 N   0  0  0  0  0  0  0  0  0  0  0  0
   -0.8888    0.6300    2.0062 N   0  0  0  0  0  0  0  0  0  0  0  0
   -0.5861   -0.0196    0.9227 C   0  0  0  0  0  0  0  0  0  0  0  0
    0.4104   -1.0950    0.7778 C   0  0  1  0  0  0  0  0  0  0  0  0
   -0.2023   -2.2450    0.3377 O   0  0  0  0  0  0  0  0  0  0  0  0
    1.4709   -0.6419   -0.1554 C   0  0  0  0  0  0  0  0  0  0  0  0
    1.6996   -1.2919   -1.2447 C   0  0  0  0  0  0  0  0  0  0  0  0
    2.7441   -1.0375   -1.9250 C   0  0  0  0  0  0  0  0  0  0  0  0
    3.4318    0.0347   -1.7674 C   0  0  0  0  0  0  0  0  0  0  0  0
    3.2627    0.8298   -0.7949 N   0  0  0  0  0  0  0  0  0  0  0  0
    2.2528    0.5095    0.1276 N   0  0  0  0  0  0  0  0  0  0  0  0
   -2.0655   -1.1873   -1.2412 H   0  0  0  0  0  0  0  0  0  0  0  0
   -2.6273    0.4021   -1.7884 H   0  0  0  0  0  0  0  0  0  0  0  0
   -0.9448   -0.0705   -2.1257 H   0  0  0  0  0  0  0  0  0  0  0  0
   -1.0146    2.4214    0.1244 H   0  0  0  0  0  0  0  0  0  0  0  0
   -2.5645    2.0436    2.3355 H   0  0  0  0  0  0  0  0  0  0  0  0
    0.9040   -1.2473    1.7757 H   0  0  0  0  0  0  0  0  0  0  0  0
   -0.5059   -2.8061    1.0988 H   0  0  0  0  0  0  0  0  0  0  0  0
    2.0801    1.0810    0.9768 H   0  0  0  0  0  0  0  0  0  0  0  0
  1  2  1  0
  2  3  1  0
  3  4  1  0
  4  5  1  0
  5  6  2  0
  6  7  1  0
  7  8  1  0
  7  9  1  0
  9 10  2  0
 10 11  2  0
 11 12  2  0
 12 13  2  0
 13 14  1  0
  6  2  1  0
 14  9  1  0
  1 15  1  0
  1 16  1  0
  1 17  1  0
  3 18  1  0
  4 19  1  0
  7 20  1  1
  8 21  1  0
 14 22  1  0
M  END
$$$$

     RDKit          3D

 22 23  0  0  0  0  0  0  0  0999 V2000
   -1.4903   -1.1135   -0.9474 C   0  0  0  0  0  0  0  0  0  0  0  0
   -1.6439   -0.0745    0.0467 N   0  0  0  0  0  0  0  0  0  0  0  0
   -2.8679    0.4893    0.4200 N   0  0  0  0  0  0  0  0  0  0  0  0
   -2.4906    1.7803    0.7953 N   0  0  0  0  0  0  0  0  0  0  0  0
   -1.1825    1.6812    1.2754 N   0  0  0  0  0  0  0  0  0  0  0  0
   -0.6645    0.5832    0.8388 C   0  0  0  0  0  0  0  0  0  0  0  0
    0.6998    0.0774    1.0960 C   0  0  1  0  0  0  0  0  0  0  0  0
    0.6750   -1.1837    1.6572 O   0  0  0  0  0  0  0  0  0  0  0  0
    1.5379    0.1098   -0.1164 C   0  0  0  0  0  0  0  0  0  0  0  0
    1.0494    0.5829   -1.2129 C   0  0  0  0  0  0  0  0  0  0  0  0
    1.7059    0.6679   -2.3082 C   0  0  0  0  0  0  0  0  0  0  0  0
    2.8951    0.2390   -2.3771 C   0  0  0  0  0  0  0  0  0  0  0  0
    3.5385   -0.2510   -1.3701 N   0  0  0  0  0  0  0  0  0  0  0  0
    2.8786   -0.3551   -0.1441 N   0  0  0  0  0  0  0  0  0  0  0  0
   -2.3706   -1.7975   -0.9706 H   0  0  0  0  0  0  0  0  0  0  0  0
   -1.4503   -0.6644   -1.9602 H   0  0  0  0  0  0  0  0  0  0  0  0
   -0.6154   -1.7471   -0.8155 H   0  0  0  0  0  0  0  0  0  0  0  0
   -3.2015   -0.0277    1.2610 H   0  0  0  0  0  0  0  0  0  0  0  0
   -3.1095    2.6274    0.7117 H   0  0  0  0  0  0  0  0  0  0  0  0
    1.2050    0.7525    1.8438 H   0  0  0  0  0  0  0  0  0  0  0  0
    1.5546   -1.6278    1.5888 H   0  0  0  0  0  0  0  0  0  0  0  0
    3.3472   -0.7487    0.6879 H   0  0  0  0  0  0  0  0  0  0  0  0
  1  2  1  0
  2  3  1  0
  3  4  1  0
  4  5  1  0
  5  6  2  0
  6  7  1  0
  7  8  1  0
  7  9  1  0
  9 10  2  0
 10 11  2  0
 11 12  2  0
 12 13  2  0
 13 14  1  0
  6  2  1  0
 14  9  1  0
  1 15  1  0
  1 16  1  0
  1 17  1  0
  3 18  1  0
  4 19  1  0
  7 20  1  1
  8 21  1  0
 14 22  1  0
M  END
$$$$
