
     RDKit          3D

 29 30  0  0  0  0  0  0  0  0999 V2000
    3.3597    0.8008    0.7247 C   0  0  0  0  0  0  0  0  0  0  0  0
    3.2704   -0.6971    0.5809 C   0  0  0  0  0  0  0  0  0  0  0  0
    1.9982   -1.0336    0.0135 N   0  0  0  0  0  4  0  0  0  0  0  0
    1.1026   -0.1963   -0.3101 C   0  0  0  0  0  0  0  0  0  0  0  0
   -0.0352   -0.6891   -0.7216 C   0  0  0  0  0  0  0  0  0  0  0  0
   -1.2263    0.1253   -1.0402 C   0  0  2  0  0  0  0  0  0  0  0  0
   -0.9803    1.5974   -0.8354 C   0  0  0  0  0  0  0  0  0  0  0  0
   -2.3294    2.1076   -0.6942 N   0  0  0  0  0  0  0  0  0  0  0  0
   -3.2127    1.0749   -0.3000 C   0  0  0  0  0  0  0  0  0  0  0  0
   -4.4443    1.1417   -0.1164 O   0  0  0  0  0  0  0  0  0  0  0  0
   -2.3945   -0.1453   -0.1364 C   0  0  2  0  0  0  0  0  0  0  0  0
   -1.9848   -0.2214    1.3183 C   0  0  0  0  0  0  0  0  0  0  0  0
    0.1667   -2.0774   -0.7732 N   0  0  0  0  0  0  0  0  0  0  0  0
    1.4627   -2.2884   -0.3039 N   0  0  0  0  0  0  0  0  0  0  0  0
    4.0501    1.1175    1.5196 H   0  0  0  0  0  0  0  0  0  0  0  0
    2.3250    1.1678    0.9419 H   0  0  0  0  0  0  0  0  0  0  0  0
    3.6169    1.2644   -0.2690 H   0  0  0  0  0  0  0  0  0  0  0  0
    3.2928   -1.1118    1.6249 H   0  0  0  0  0  0  0  0  0  0  0  0
    4.1162   -1.1283    0.0079 H   0  0  0  0  0  0  0  0  0  0  0  0
   -1.5595   -0.0173   -2.0853 H   0  0  0  0  0  0  0  0  0  0  0  0
   -0.3429    1.8173    0.0431 H   0  0  0  0  0  0  0  0  0  0  0  0
   -0.4535    2.0603   -1.7170 H   0  0  0  0  0  0  0  0  0  0  0  0
   -2.5830    3.1033   -0.8664 H   0  0  0  0  0  0  0  0  0  0  0  0
   -2.9226   -1.0723   -0.3939 H   0  0  0  0  0  0  0  0  0  0  0  0
   -1.6690   -1.2468    1.6181 H   0  0  0  0  0  0  0  0  0  0  0  0
   -2.8745    0.0217    1.9356 H   0  0  0  0  0  0  0  0  0  0  0  0
   -1.1577    0.4713    1.5400 H   0  0  0  0  0  0  0  0  0  0  0  0
   -0.5417   -2.7628   -1.1034 H   0  0  0  0  0  0  0  0  0  0  0  0
    1.9510   -3.1835   -0.2021 H   0  0  0  0  0  0  0  0  0  0  0  0
  1  2  1  0
  2  3  1  0
  3  4  2  0
  4  5  2  0
  5  6  1  0
  6  7  1  0
  7  8  1  0
  8  9  1  0
  9 10  2  0
  9 11  1  0
 11 12  1  0
  5 13  1  0
 13 14  1  0
 14  3  1  0
 11  6  1  0
  1 15  1  0
  1 16  1  0
  1 17  1  0
  2 18  1  0
  2 19  1  0
  6 20  1  6
  7 21  1  0
  7 22  1  0
  8 23  1  0
 11 24  1  6
 12 25  1  0
 12 26  1  0
 12 27  1  0
 13 28  1  0
 14 29  1  0
M  CHG  1   3   1
M  END
$$$$

     RDKit          3D

 29 30  0  0  0  0  0  0  0  0999 V2000
    4.1699    0.4351   -0.9907 C   0  0  0  0  0  0  0  0  0  0  0  0
    3.4029    0.0615    0.2613 C   0  0  0  0  0  0  0  0  0  0  0  0
    2.0047   -0.1150   -0.0421 N   0  0  0  0  0  4  0  0  0  0  0  0
    1.0689    0.5598    0.4806 C   0  0  0  0  0  0  0  0  0  0  0  0
   -0.1393    0.0417    0.3555 C   0  0  0  0  0  0  0  0  0  0  0  0
   -1.3455    0.4059    1.1374 C   0  0  2  0  0  0  0  0  0  0  0  0
   -1.9008   -0.7833    1.9025 C   0  0  0  0  0  0  0  0  0  0  0  0
   -2.5787   -1.5120    0.8598 N   0  0  0  0  0  0  0  0  0  0  0  0
   -2.9566   -0.6213   -0.1892 C   0  0  0  0  0  0  0  0  0  0  0  0
   -3.5462   -0.8483   -1.2671 O   0  0  0  0  0  0  0  0  0  0  0  0
   -2.5069    0.7368    0.2230 C   0  0  2  0  0  0  0  0  0  0  0  0
   -2.0761    1.5654   -0.9589 C   0  0  0  0  0  0  0  0  0  0  0  0
   -0.0085   -0.9251   -0.6835 N   0  0  0  0  0  0  0  0  0  0  0  0
    1.3882   -1.0074   -0.9215 N   0  0  0  0  0  0  0  0  0  0  0  0
    3.4697    0.6221   -1.8243 H   0  0  0  0  0  0  0  0  0  0  0  0
    4.7697    1.3629   -0.8592 H   0  0  0  0  0  0  0  0  0  0  0  0
    4.8847   -0.3773   -1.1901 H   0  0  0  0  0  0  0  0  0  0  0  0
    3.8267   -0.8437    0.7491 H   0  0  0  0  0  0  0  0  0  0  0  0
    3.5477    0.8946    0.9767 H   0  0  0  0  0  0  0  0  0  0  0  0
   -1.0886    1.2379    1.8090 H   0  0  0  0  0  0  0  0  0  0  0  0
   -2.5720   -0.4215    2.6898 H   0  0  0  0  0  0  0  0  0  0  0  0
   -1.0620   -1.3459    2.3539 H   0  0  0  0  0  0  0  0  0  0  0  0
   -2.7759   -2.5380    0.8500 H   0  0  0  0  0  0  0  0  0  0  0  0
   -3.2998    1.1802    0.8209 H   0  0  0  0  0  0  0  0  0  0  0  0
   -1.0981    2.0438   -0.7286 H   0  0  0  0  0  0  0  0  0  0  0  0
   -2.7804    2.3520   -1.2383 H   0  0  0  0  0  0  0  0  0  0  0  0
   -1.8782    0.8843   -1.8239 H   0  0  0  0  0  0  0  0  0  0  0  0
   -0.7791   -1.4385   -1.1445 H   0  0  0  0  0  0  0  0  0  0  0  0
    1.8596   -1.6067   -1.6078 H   0  0  0  0  0  0  0  0  0  0  0  0
  1  2  1  0
  2  3  1  0
  3  4  2  0
  4  5  2  0
  5  6  1  0
  6  7  1  0
  7  8  1  0
  8  9  1  0
  9 10  2  0
  9 11  1  0
 11 12  1  0
  5 13  1  0
 13 14  1  0
 14  3  1  0
 11  6  1  0
  1 15  1  0
  1 16  1  0
  1 17  1  0
  2 18  1  0
  2 19  1  0
  6 20  1  1
  7 21  1  0
  7 22  1  0
  8 23  1  0
 11 24  1  1
 12 25  1  0
 12 26  1  0
 12 27  1  0
 13 28  1  0
 14 29  1  0
M  CHG  1   3   1
M  END
$$$$

     RDKit          3D

 29 30  0  0  0  0  0  0  0  0999 V2000
    4.1454   -0.0100   -0.5239 C   0  0  0  0  0  0  0  0  0  0  0  0
    2.8195    0.6619   -0.8045 C   0  0  0  0  0  0  0  0  0  0  0  0
    1.7675   -0.0361   -0.1187 N   0  0  0  0  0  4  0  0  0  0  0  0
    0.7242   -0.6191   -0.6041 C   0  0  0  0  0  0  0  0  0  0  0  0
   -0.2416   -0.7793    0.2635 C   0  0  0  0  0  0  0  0  0  0  0  0
   -1.6863   -1.0043    0.0194 C   0  0  2  0  0  0  0  0  0  0  0  0
   -1.9746   -1.0527   -1.4838 C   0  0  0  0  0  0  0  0  0  0  0  0
   -2.0357    0.3668   -1.8600 N   0  0  0  0  0  0  0  0  0  0  0  0
   -2.1559    1.1550   -0.6753 C   0  0  0  0  0  0  0  0  0  0  0  0
   -1.9634    2.3959   -0.6475 O   0  0  0  0  0  0  0  0  0  0  0  0
   -2.5292    0.2082    0.3927 C   0  0  2  0  0  0  0  0  0  0  0  0
   -2.2108    0.6829    1.7740 C   0  0  0  0  0  0  0  0  0  0  0  0
    0.4007   -0.6895    1.5278 N   0  0  0  0  0  0  0  0  0  0  0  0
    1.6965   -0.2079    1.2603 N   0  0  0  0  0  0  0  0  0  0  0  0
    4.7298    0.0196   -1.4762 H   0  0  0  0  0  0  0  0  0  0  0  0
    4.0071   -1.0190   -0.1344 H   0  0  0  0  0  0  0  0  0  0  0  0
    4.7451    0.5933    0.2119 H   0  0  0  0  0  0  0  0  0  0  0  0
    2.8549    1.7109   -0.4739 H   0  0  0  0  0  0  0  0  0  0  0  0
    2.5925    0.6699   -1.8957 H   0  0  0  0  0  0  0  0  0  0  0  0
   -2.0357   -1.8924    0.5445 H   0  0  0  0  0  0  0  0  0  0  0  0
   -2.9768   -1.4904   -1.6392 H   0  0  0  0  0  0  0  0  0  0  0  0
   -1.1611   -1.5625   -1.9951 H   0  0  0  0  0  0  0  0  0  0  0  0
   -1.9941    0.6840   -2.8360 H   0  0  0  0  0  0  0  0  0  0  0  0
   -3.5795   -0.0612    0.2608 H   0  0  0  0  0  0  0  0  0  0  0  0
   -2.9279    1.3965    2.1722 H   0  0  0  0  0  0  0  0  0  0  0  0
   -1.1837    1.0551    1.8463 H   0  0  0  0  0  0  0  0  0  0  0  0
   -2.2719   -0.2224    2.4458 H   0  0  0  0  0  0  0  0  0  0  0  0
    0.0196   -0.9239    2.4730 H   0  0  0  0  0  0  0  0  0  0  0  0
    2.4254   -0.0294    1.9763 H   0  0  0  0  0  0  0  0  0  0  0  0
  1  2  1  0
  2  3  1  0
  3  4  2  0
  4  5  2  0
  5  6  1  0
  6  7  1  0
  7  8  1  0
  8  9  1  0
  9 10  2  0
  9 11  1  0
 11 12  1  0
  5 13  1  0
 13 14  1  0
 14  3  1  0
 11  6  1  0
  1 15  1  0
  1 16  1  0
  1 17  1  0
  2 18  1  0
  2 19  1  0
  6 20  1  1
  7 21  1  0
  7 22  1  0
  8 23  1  0
 11 24  1  1
 12 25  1  0
 12 26  1  0
 12 27  1  0
 13 28  1  0
 14 29  1  0
M  CHG  1   3   1
M  END
$$$$

     RDKit          3D

 29 30  0  0  0  0  0  0  0  0999 V2000
    4.3692   -0.1213   -0.5359 C   0  0  0  0  0  0  0  0  0  0  0  0
    3.0877    0.2470   -1.2153 C   0  0  0  0  0  0  0  0  0  0  0  0
    1.9987    0.3918   -0.2758 N   0  0  0  0  0  4  0  0  0  0  0  0
    0.8926   -0.2612   -0.2301 C   0  0  0  0  0  0  0  0  0  0  0  0
    0.0560    0.0681    0.7136 C   0  0  0  0  0  0  0  0  0  0  0  0
   -1.2409   -0.5440    0.9105 C   0  0  2  0  0  0  0  0  0  0  0  0
   -1.5710   -1.6286   -0.0866 C   0  0  0  0  0  0  0  0  0  0  0  0
   -2.9924   -1.8003    0.1532 N   0  0  0  0  0  0  0  0  0  0  0  0
   -3.5300   -0.6272    0.7552 C   0  0  0  0  0  0  0  0  0  0  0  0
   -4.6901   -0.4781    1.2181 O   0  0  0  0  0  0  0  0  0  0  0  0
   -2.4163    0.3851    0.7162 C   0  0  2  0  0  0  0  0  0  0  0  0
   -2.4412    0.9918   -0.6658 C   0  0  0  0  0  0  0  0  0  0  0  0
    0.6941    1.1014    1.4423 N   0  0  0  0  0  0  0  0  0  0  0  0
    1.9281    1.2888    0.7931 N   0  0  0  0  0  0  0  0  0  0  0  0
    5.2277    0.2020   -1.1582 H   0  0  0  0  0  0  0  0  0  0  0  0
    4.4251   -1.2247   -0.3995 H   0  0  0  0  0  0  0  0  0  0  0  0
    4.3781    0.3836    0.4708 H   0  0  0  0  0  0  0  0  0  0  0  0
    2.8326   -0.4539   -2.0254 H   0  0  0  0  0  0  0  0  0  0  0  0
    3.2472    1.2538   -1.6875 H   0  0  0  0  0  0  0  0  0  0  0  0
   -1.3536   -0.9967    1.9204 H   0  0  0  0  0  0  0  0  0  0  0  0
   -1.4706   -1.2216   -1.1177 H   0  0  0  0  0  0  0  0  0  0  0  0
   -0.9975   -2.5544    0.0639 H   0  0  0  0  0  0  0  0  0  0  0  0
   -3.5645   -2.6398   -0.0684 H   0  0  0  0  0  0  0  0  0  0  0  0
   -2.5165    1.1250    1.5239 H   0  0  0  0  0  0  0  0  0  0  0  0
   -2.6266    2.0868   -0.6071 H   0  0  0  0  0  0  0  0  0  0  0  0
   -3.2372    0.5730   -1.3109 H   0  0  0  0  0  0  0  0  0  0  0  0
   -1.4862    0.8477   -1.2106 H   0  0  0  0  0  0  0  0  0  0  0  0
    0.3313    1.6124    2.2765 H   0  0  0  0  0  0  0  0  0  0  0  0
    2.6662    1.9936    1.0786 H   0  0  0  0  0  0  0  0  0  0  0  0
  1  2  1  0
  2  3  1  0
  3  4  2  0
  4  5  2  0
  5  6  1  0
  6  7  1  0
  7  8  1  0
  8  9  1  0
  9 10  2  0
  9 11  1  0
 11 12  1  0
  5 13  1  0
 13 14  1  0
 14  3  1  0
 11  6  1  0
  1 15  1  0
  1 16  1  0
  1 17  1  0
  2 18  1  0
  2 19  1  0
  6 20  1  1
  7 21  1  0
  7 22  1  0
  8 23  1  0
 11 24  1  1
 12 25  1  0
 12 26  1  0
 12 27  1  0
 13 28  1  0
 14 29  1  0
M  CHG  1   3   1
M  END
$$$$

     RDKit          3D

 29 30  0  0  0  0  0  0  0  0999 V2000
    4.0877   -0.0428   -1.2972 C   0  0  0  0  0  0  0  0  0  0  0  0
    3.6120   -0.6407   -0.0211 C   0  0  0  0  0  0  0  0  0  0  0  0
    2.2090   -0.4658    0.2032 N   0  0  0  0  0  4  0  0  0  0  0  0
    1.3028    0.1084   -0.4941 C   0  0  0  0  0  0  0  0  0  0  0  0
    0.0836    0.1142   -0.0373 C   0  0  0  0  0  0  0  0  0  0  0  0
   -1.0652    0.7131   -0.6921 C   0  0  2  0  0  0  0  0  0  0  0  0
   -1.7218    1.8049    0.1617 C   0  0  0  0  0  0  0  0  0  0  0  0
   -3.0884    1.8184   -0.3262 N   0  0  0  0  0  0  0  0  0  0  0  0
   -3.3582    0.6292   -1.0502 C   0  0  0  0  0  0  0  0  0  0  0  0
   -4.4507    0.3477   -1.5750 O   0  0  0  0  0  0  0  0  0  0  0  0
   -2.1505   -0.2334   -1.0932 C   0  0  2  0  0  0  0  0  0  0  0  0
   -2.3680   -1.3660   -0.1320 C   0  0  0  0  0  0  0  0  0  0  0  0
    0.1608   -0.5805    1.2031 N   0  0  0  0  0  0  0  0  0  0  0  0
    1.5213   -0.9395    1.3346 N   0  0  0  0  0  0  0  0  0  0  0  0
    3.2346    0.1557   -1.9809 H   0  0  0  0  0  0  0  0  0  0  0  0
    4.8641   -0.6776   -1.7790 H   0  0  0  0  0  0  0  0  0  0  0  0
    4.5812    0.9572   -1.1445 H   0  0  0  0  0  0  0  0  0  0  0  0
    3.8235   -1.7480   -0.0206 H   0  0  0  0  0  0  0  0  0  0  0  0
    4.2281   -0.2359    0.8168 H   0  0  0  0  0  0  0  0  0  0  0  0
   -0.7508    1.2460   -1.6224 H   0  0  0  0  0  0  0  0  0  0  0  0
   -1.6587    1.5711    1.2268 H   0  0  0  0  0  0  0  0  0  0  0  0
   -1.2042    2.7732   -0.0059 H   0  0  0  0  0  0  0  0  0  0  0  0
   -3.7508    2.6185   -0.1447 H   0  0  0  0  0  0  0  0  0  0  0  0
   -2.0471   -0.6343   -2.1019 H   0  0  0  0  0  0  0  0  0  0  0  0
   -2.7576   -1.0086    0.8565 H   0  0  0  0  0  0  0  0  0  0  0  0
   -3.1819   -1.9940   -0.5538 H   0  0  0  0  0  0  0  0  0  0  0  0
   -1.4899   -2.0282   -0.0287 H   0  0  0  0  0  0  0  0  0  0  0  0
   -0.5990   -0.7919    1.8827 H   0  0  0  0  0  0  0  0  0  0  0  0
    1.9341   -1.4703    2.1458 H   0  0  0  0  0  0  0  0  0  0  0  0
  1  2  1  0
  2  3  1  0
  3  4  2  0
  4  5  2  0
  5  6  1  0
  6  7  1  0
  7  8  1  0
  8  9  1  0
  9 10  2  0
  9 11  1  0
 11 12  1  0
  5 13  1  0
 13 14  1  0
 14  3  1  0
 11  6  1  0
  1 15  1  0
  1 16  1  0
  1 17  1  0
  2 18  1  0
  2 19  1  0
  6 20  1  6
  7 21  1  0
  7 22  1  0
  8 23  1  0
 11 24  1  6
 12 25  1  0
 12 26  1  0
 12 27  1  0
 13 28  1  0
 14 29  1  0
M  CHG  1   3   1
M  END
$$$$

     RDKit          3D

 29 30  0  0  0  0  0  0  0  0999 V2000
   -4.2204    0.9162   -0.3265 C   0  0  0  0  0  0  0  0  0  0  0  0
   -3.0644    1.1162    0.6318 C   0  0  0  0  0  0  0  0  0  0  0  0
   -2.0035    0.1636    0.3789 N   0  0  0  0  0  4  0  0  0  0  0  0
   -0.7860    0.4413    0.0546 C   0  0  0  0  0  0  0  0  0  0  0  0
   -0.0592   -0.5909   -0.2723 C   0  0  0  0  0  0  0  0  0  0  0  0
    1.2912   -0.6896   -0.8252 C   0  0  2  0  0  0  0  0  0  0  0  0
    2.2475   -1.4534    0.0550 C   0  0  0  0  0  0  0  0  0  0  0  0
    3.5365   -1.0119   -0.4423 N   0  0  0  0  0  0  0  0  0  0  0  0
    3.3937    0.1793   -1.2061 C   0  0  0  0  0  0  0  0  0  0  0  0
    4.2578    0.7379   -1.9171 O   0  0  0  0  0  0  0  0  0  0  0  0
    1.9896    0.6247   -0.9798 C   0  0  2  0  0  0  0  0  0  0  0  0
    1.9841    1.4446    0.2868 C   0  0  0  0  0  0  0  0  0  0  0  0
   -0.8737   -1.7193    0.0254 N   0  0  0  0  0  0  0  0  0  0  0  0
   -2.1304   -1.2271    0.4463 N   0  0  0  0  0  0  0  0  0  0  0  0
   -3.9421    1.2579   -1.3624 H   0  0  0  0  0  0  0  0  0  0  0  0
   -4.5344   -0.1370   -0.3165 H   0  0  0  0  0  0  0  0  0  0  0  0
   -5.0501    1.5678   -0.0091 H   0  0  0  0  0  0  0  0  0  0  0  0
   -3.4633    1.0106    1.6504 H   0  0  0  0  0  0  0  0  0  0  0  0
   -2.6910    2.1495    0.5089 H   0  0  0  0  0  0  0  0  0  0  0  0
    1.3166   -1.1901   -1.8240 H   0  0  0  0  0  0  0  0  0  0  0  0
    2.1075   -2.5466   -0.0760 H   0  0  0  0  0  0  0  0  0  0  0  0
    2.1076   -1.2475    1.1332 H   0  0  0  0  0  0  0  0  0  0  0  0
    4.4411   -1.5000   -0.2645 H   0  0  0  0  0  0  0  0  0  0  0  0
    1.6125    1.2209   -1.8345 H   0  0  0  0  0  0  0  0  0  0  0  0
    1.0554    2.0405    0.4134 H   0  0  0  0  0  0  0  0  0  0  0  0
    2.8818    2.1258    0.2140 H   0  0  0  0  0  0  0  0  0  0  0  0
    2.1977    0.7890    1.1555 H   0  0  0  0  0  0  0  0  0  0  0  0
   -0.6238   -2.7170   -0.0427 H   0  0  0  0  0  0  0  0  0  0  0  0
   -2.9785   -1.7552    0.7451 H   0  0  0  0  0  0  0  0  0  0  0  0
  1  2  1  0
  2  3  1  0
  3  4  2  0
  4  5  2  0
  5  6  1  0
  6  7  1  0
  7  8  1  0
  8  9  1  0
  9 10  2  0
  9 11  1  0
 11 12  1  0
  5 13  1  0
 13 14  1  0
 14  3  1  0
 11  6  1  0
  1 15  1  0
  1 16  1  0
  1 17  1  0
  2 18  1  0
  2 19  1  0
  6 20  1  6
  7 21  1  0
  7 22  1  0
  8 23  1  0
 11 24  1  6
 12 25  1  0
 12 26  1  0
 12 27  1  0
 13 28  1  0
 14 29  1  0
M  CHG  1   3   1
M  END
$$$$

     RDKit          3D

 29 30  0  0  0  0  0  0  0  0999 V2000
    4.3967   -0.1194   -0.2438 C   0  0  0  0  0  0  0  0  0  0  0  0
    3.4154    0.5018    0.7375 C   0  0  0  0  0  0  0  0  0  0  0  0
    2.0918    0.1895    0.2851 N   0  0  0  0  0  4  0  0  0  0  0  0
    1.1399   -0.4513    0.8407 C   0  0  0  0  0  0  0  0  0  0  0  0
   -0.0303   -0.3511    0.2371 C   0  0  0  0  0  0  0  0  0  0  0  0
   -1.3668   -0.7584    0.7098 C   0  0  2  0  0  0  0  0  0  0  0  0
   -1.9034   -1.7685   -0.2815 C   0  0  0  0  0  0  0  0  0  0  0  0
   -3.3247   -1.5732   -0.2397 N   0  0  0  0  0  0  0  0  0  0  0  0
   -3.5477   -0.1916   -0.0514 C   0  0  0  0  0  0  0  0  0  0  0  0
   -4.5059    0.5369   -0.4262 O   0  0  0  0  0  0  0  0  0  0  0  0
   -2.3810    0.3333    0.7259 C   0  0  2  0  0  0  0  0  0  0  0  0
   -1.9110    1.6512    0.2106 C   0  0  0  0  0  0  0  0  0  0  0  0
    0.2616    0.2517   -1.0101 N   0  0  0  0  0  0  0  0  0  0  0  0
    1.6075    0.5952   -0.9812 N   0  0  0  0  0  0  0  0  0  0  0  0
    4.8440   -0.9990    0.2558 H   0  0  0  0  0  0  0  0  0  0  0  0
    5.2096    0.6154   -0.4546 H   0  0  0  0  0  0  0  0  0  0  0  0
    3.9086   -0.3831   -1.1926 H   0  0  0  0  0  0  0  0  0  0  0  0
    3.6129    0.1614    1.7695 H   0  0  0  0  0  0  0  0  0  0  0  0
    3.5248    1.6209    0.6565 H   0  0  0  0  0  0  0  0  0  0  0  0
   -1.3154   -1.2576    1.7065 H   0  0  0  0  0  0  0  0  0  0  0  0
   -1.5953   -2.7927    0.0044 H   0  0  0  0  0  0  0  0  0  0  0  0
   -1.5533   -1.5561   -1.3197 H   0  0  0  0  0  0  0  0  0  0  0  0
   -4.1040   -2.2756   -0.3260 H   0  0  0  0  0  0  0  0  0  0  0  0
   -2.7619    0.4671    1.7806 H   0  0  0  0  0  0  0  0  0  0  0  0
   -0.8402    1.8468    0.3669 H   0  0  0  0  0  0  0  0  0  0  0  0
   -2.1577    1.7793   -0.8828 H   0  0  0  0  0  0  0  0  0  0  0  0
   -2.4453    2.4694    0.7777 H   0  0  0  0  0  0  0  0  0  0  0  0
   -0.4155    0.3976   -1.7813 H   0  0  0  0  0  0  0  0  0  0  0  0
    2.1466    1.0602   -1.7462 H   0  0  0  0  0  0  0  0  0  0  0  0
  1  2  1  0
  2  3  1  0
  3  4  2  0
  4  5  2  0
  5  6  1  0
  6  7  1  0
  7  8  1  0
  8  9  1  0
  9 10  2  0
  9 11  1  0
 11 12  1  0
  5 13  1  0
 13 14  1  0
 14  3  1  0
 11  6  1  0
  1 15  1  0
  1 16  1  0
  1 17  1  0
  2 18  1  0
  2 19  1  0
  6 20  1  1
  7 21  1  0
  7 22  1  0
  8 23  1  0
 11 24  1  1
 12 25  1  0
 12 26  1  0
 12 27  1  0
 13 28  1  0
 14 29  1  0
M  CHG  1   3   1
M  END
$$$$

     RDKit          3D

 29 30  0  0  0  0  0  0  0  0999 V2000
    3.7533    1.3496    0.0904 C   0  0  0  0  0  0  0  0  0  0  0  0
    2.9387    0.5197    1.0755 C   0  0  0  0  0  0  0  0  0  0  0  0
    1.9072   -0.1798    0.3425 N   0  0  0  0  0  4  0  0  0  0  0  0
    0.6296   -0.0775    0.5112 C   0  0  0  0  0  0  0  0  0  0  0  0
   -0.0921   -0.8149   -0.2753 C   0  0  0  0  0  0  0  0  0  0  0  0
   -1.5516   -0.9382   -0.3484 C   0  0  2  0  0  0  0  0  0  0  0  0
   -2.1102   -0.5466   -1.6911 C   0  0  0  0  0  0  0  0  0  0  0  0
   -3.0777    0.4888   -1.4375 N   0  0  0  0  0  0  0  0  0  0  0  0
   -2.8136    1.0017   -0.1435 C   0  0  0  0  0  0  0  0  0  0  0  0
   -2.9720    2.2083    0.2510 O   0  0  0  0  0  0  0  0  0  0  0  0
   -2.3163   -0.1573    0.6517 C   0  0  2  0  0  0  0  0  0  0  0  0
   -1.6158    0.2394    1.8918 C   0  0  0  0  0  0  0  0  0  0  0  0
    0.8354   -1.5124   -1.0912 N   0  0  0  0  0  0  0  0  0  0  0  0
    2.1262   -1.1017   -0.6916 N   0  0  0  0  0  0  0  0  0  0  0  0
    3.8379    0.7514   -0.8360 H   0  0  0  0  0  0  0  0  0  0  0  0
    4.7322    1.6457    0.5001 H   0  0  0  0  0  0  0  0  0  0  0  0
    3.1329    2.2471   -0.1679 H   0  0  0  0  0  0  0  0  0  0  0  0
    2.5103    1.1732    1.8610 H   0  0  0  0  0  0  0  0  0  0  0  0
    3.6534   -0.2022    1.5560 H   0  0  0  0  0  0  0  0  0  0  0  0
   -1.8163   -2.0251   -0.2024 H   0  0  0  0  0  0  0  0  0  0  0  0
   -1.3320   -0.0995   -2.3543 H   0  0  0  0  0  0  0  0  0  0  0  0
   -2.5714   -1.4131   -2.2306 H   0  0  0  0  0  0  0  0  0  0  0  0
   -3.8190    0.7842   -2.1018 H   0  0  0  0  0  0  0  0  0  0  0  0
   -3.2541   -0.7203    0.9392 H   0  0  0  0  0  0  0  0  0  0  0  0
   -1.0247    1.1736    1.8287 H   0  0  0  0  0  0  0  0  0  0  0  0
   -1.0055   -0.6060    2.2697 H   0  0  0  0  0  0  0  0  0  0  0  0
   -2.3972    0.3943    2.6947 H   0  0  0  0  0  0  0  0  0  0  0  0
    0.6526   -2.1912   -1.8373 H   0  0  0  0  0  0  0  0  0  0  0  0
    3.0597   -1.3914   -1.0547 H   0  0  0  0  0  0  0  0  0  0  0  0
  1  2  1  0
  2  3  1  0
  3  4  2  0
  4  5  2  0
  5  6  1  0
  6  7  1  0
  7  8  1  0
  8  9  1  0
  9 10  2  0
  9 11  1  0
 11 12  1  0
  5 13  1  0
 13 14  1  0
 14  3  1  0
 11  6  1  0
  1 15  1  0
  1 16  1  0
  1 17  1  0
  2 18  1  0
  2 19  1  0
  6 20  1  1
  7 21  1  0
  7 22  1  0
  8 23  1  0
 11 24  1  1
 12 25  1  0
 12 26  1  0
 12 27  1  0
 13 28  1  0
 14 29  1  0
M  CHG  1   3   1
M  END
$$$$
