
     RDKit          3D

 24 25  0  0  0  0  0  0  0  0999 V2000
   -3.9496    1.1878   -0.9757 O   0  0  0  0  0  0  0  0  0  0  0  0
   -3.4313    0.2818   -0.3444 C   0  0  0  0  0  0  0  0  0  0  0  0
   -2.6021    0.4014    0.9528 C   0  0  0  0  0  0  0  0  0  0  0  0
   -1.9976   -0.9325    0.5176 C   0  0  0  0  0  0  0  0  0  0  0  0
   -0.8401   -0.8564   -0.3210 N   0  0  0  0  0  0  0  0  0  0  0  0
    0.4099   -0.2153    0.0427 C   0  0  0  0  0  0  0  0  0  0  0  0
    0.4218    0.3327    1.1568 O   0  0  0  0  0  0  0  0  0  0  0  0
    1.5406   -0.2206   -0.8787 C   0  0  0  0  0  0  0  0  0  0  0  0
    2.5306    0.8045   -0.5323 N   0  0  0  0  0  0  0  0  0  0  0  0
    3.2270    1.2489   -0.0287 C   0  0  0  0  0  0  0  0  0  0  0  0
    3.7928    1.5970    0.3858 N   0  0  0  0  0  4  0  0  0  0  0  0
    4.3102    1.9241    0.7560 N   0  0  0  0  0  0  0  0  0  0  0  0
    3.6116   -0.1055    0.7950 N   0  0  0  0  0  0  0  0  0  0  0  0
   -3.2076   -1.1715   -0.2816 C   0  0  0  0  0  0  0  0  0  0  0  0
   -1.9942    1.2466    1.0383 H   0  0  0  0  0  0  0  0  0  0  0  0
   -3.3402    0.1819    1.7892 H   0  0  0  0  0  0  0  0  0  0  0  0
   -1.8675   -1.5186    1.4550 H   0  0  0  0  0  0  0  0  0  0  0  0
   -0.8208   -1.2608   -1.2677 H   0  0  0  0  0  0  0  0  0  0  0  0
    1.9802   -1.2498   -0.8908 H   0  0  0  0  0  0  0  0  0  0  0  0
    1.2270   -0.0246   -1.8996 H   0  0  0  0  0  0  0  0  0  0  0  0
    5.0715    1.3509    1.6423 H   0  0  0  0  0  0  0  0  0  0  0  0
    3.0171    0.3934    1.4542 H   0  0  0  0  0  0  0  0  0  0  0  0
   -3.0573   -1.6623   -1.2872 H   0  0  0  0  0  0  0  0  0  0  0  0
   -4.0319   -1.7333    0.2550 H   0  0  0  0  0  0  0  0  0  0  0  0
  1  2  2  0
  2  3  1  0
  3  4  1  0
  4  5  1  0
  5  6  1  0
  6  7  2  0
  6  8  1  0
  8  9  1  0
  9 10  1  0
 10 11  3  0
 11 12  1  0
 12 13  1  0
  4 14  1  0
 14  2  1  0
 13  9  1  0
  3 15  1  0
  3 16  1  0
  4 17  1  0
  5 18  1  0
  8 19  1  0
  8 20  1  0
 12 21  1  0
 13 22  1  0
 14 23  1  0
 14 24  1  0
M  CHG  1  11   1
M  END
$$$$

     RDKit          3D

 24 25  0  0  0  0  0  0  0  0999 V2000
   -3.1830    1.6113   -3.2473 O   0  0  0  0  0  0  0  0  0  0  0  0
   -3.1808    0.7377   -2.2842 C   0  0  0  0  0  0  0  0  0  0  0  0
   -1.7180   -0.0726   -2.5632 C   0  0  0  0  0  0  0  0  0  0  0  0
   -1.9097   -0.6393   -1.2098 C   0  0  0  0  0  0  0  0  0  0  0  0
   -1.1152   -0.1249   -0.1384 N   0  0  0  0  0  0  0  0  0  0  0  0
    0.1659   -0.6002    0.2095 C   0  0  0  0  0  0  0  0  0  0  0  0
    0.7007   -1.5371   -0.4149 O   0  0  0  0  0  0  0  0  0  0  0  0
    0.8839    0.0544    1.3053 C   0  0  0  0  0  0  0  0  0  0  0  0
    2.3601   -0.5880    1.2060 N   0  0  0  0  0  0  0  0  0  0  0  0
    3.0931   -0.4324    1.5161 C   0  0  0  0  0  0  0  0  0  0  0  0
    3.7805   -0.2853    1.8087 N   0  0  0  0  0  4  0  0  0  0  0  0
    4.5764   -0.1123    2.1546 N   0  0  0  0  0  0  0  0  0  0  0  0
    2.8962    0.8728    2.6182 N   0  0  0  0  0  0  0  0  0  0  0  0
   -3.2770   -0.1312   -1.2489 C   0  0  0  0  0  0  0  0  0  0  0  0
   -1.0311    0.7468   -2.6652 H   0  0  0  0  0  0  0  0  0  0  0  0
   -1.9341   -0.7849   -3.3344 H   0  0  0  0  0  0  0  0  0  0  0  0
   -1.7987   -1.7876   -1.3108 H   0  0  0  0  0  0  0  0  0  0  0  0
   -1.5181    0.6729    0.4451 H   0  0  0  0  0  0  0  0  0  0  0  0
    0.5968   -0.1068    2.3182 H   0  0  0  0  0  0  0  0  0  0  0  0
    0.9974    1.1009    1.0374 H   0  0  0  0  0  0  0  0  0  0  0  0
    5.0660    0.6057    2.9448 H   0  0  0  0  0  0  0  0  0  0  0  0
    3.0890    1.3128    1.7376 H   0  0  0  0  0  0  0  0  0  0  0  0
   -4.0311   -0.9834   -1.2201 H   0  0  0  0  0  0  0  0  0  0  0  0
   -3.5091    0.4707   -0.2157 H   0  0  0  0  0  0  0  0  0  0  0  0
  1  2  2  0
  2  3  1  0
  3  4  1  0
  4  5  1  0
  5  6  1  0
  6  7  2  0
  6  8  1  0
  8  9  1  0
  9 10  1  0
 10 11  3  0
 11 12  1  0
 12 13  1  0
  4 14  1  0
 14  2  1  0
 13  9  1  0
  3 15  1  0
  3 16  1  0
  4 17  1  0
  5 18  1  0
  8 19  1  0
  8 20  1  0
 12 21  1  0
 13 22  1  0
 14 23  1  0
 14 24  1  0
M  CHG  1  11   1
M  END
$$$$

     RDKit          3D

 24 25  0  0  0  0  0  0  0  0999 V2000
   -5.2809    0.5502   -0.1342 O   0  0  0  0  0  0  0  0  0  0  0  0
   -4.0844    0.4977   -0.3251 C   0  0  0  0  0  0  0  0  0  0  0  0
   -3.1686    0.6297    0.9122 C   0  0  0  0  0  0  0  0  0  0  0  0
   -2.2807   -0.3968    0.1678 C   0  0  0  0  0  0  0  0  0  0  0  0
   -0.9355   -0.3106    0.4724 N   0  0  0  0  0  0  0  0  0  0  0  0
    0.1997   -0.8170   -0.1554 C   0  0  0  0  0  0  0  0  0  0  0  0
    0.1218   -1.4599   -1.2236 O   0  0  0  0  0  0  0  0  0  0  0  0
    1.5125   -0.4822    0.5586 C   0  0  0  0  0  0  0  0  0  0  0  0
    2.6737   -0.5081   -0.0940 N   0  0  0  0  0  0  0  0  0  0  0  0
    3.4972    0.1911   -0.1006 C   0  0  0  0  0  0  0  0  0  0  0  0
    3.8530    0.4999   -0.0972 N   0  0  0  0  0  4  0  0  0  0  0  0
    4.6079    1.1381   -0.1011 N   0  0  0  0  0  0  0  0  0  0  0  0
    4.0506   -0.8472   -0.9825 N   0  0  0  0  0  0  0  0  0  0  0  0
   -2.8907    0.3941   -1.1042 C   0  0  0  0  0  0  0  0  0  0  0  0
   -3.4816    0.3083    1.8632 H   0  0  0  0  0  0  0  0  0  0  0  0
   -2.7647    1.7226    0.8037 H   0  0  0  0  0  0  0  0  0  0  0  0
   -2.7531   -1.3715    0.0790 H   0  0  0  0  0  0  0  0  0  0  0  0
   -0.7338    0.3669    1.3559 H   0  0  0  0  0  0  0  0  0  0  0  0
    1.4424   -1.4011    1.3925 H   0  0  0  0  0  0  0  0  0  0  0  0
    1.3878    0.3149    1.3196 H   0  0  0  0  0  0  0  0  0  0  0  0
    5.5965    0.9271   -0.7993 H   0  0  0  0  0  0  0  0  0  0  0  0
    4.7235   -0.9421   -0.0886 H   0  0  0  0  0  0  0  0  0  0  0  0
   -2.9148   -0.3266   -1.9862 H   0  0  0  0  0  0  0  0  0  0  0  0
   -2.3778    1.3228   -1.2508 H   0  0  0  0  0  0  0  0  0  0  0  0
  1  2  2  0
  2  3  1  0
  3  4  1  0
  4  5  1  0
  5  6  1  0
  6  7  2  0
  6  8  1  0
  8  9  1  0
  9 10  1  0
 10 11  3  0
 11 12  1  0
 12 13  1  0
  4 14  1  0
 14  2  1  0
 13  9  1  0
  3 15  1  0
  3 16  1  0
  4 17  1  0
  5 18  1  0
  8 19  1  0
  8 20  1  0
 12 21  1  0
 13 22  1  0
 14 23  1  0
 14 24  1  0
M  CHG  1  11   1
M  END
$$$$

     RDKit          3D

 24 25  0  0  0  0  0  0  0  0999 V2000
   -2.7864    2.7033    1.5228 O   0  0  0  0  0  0  0  0  0  0  0  0
   -2.6595    1.5176    1.4508 C   0  0  0  0  0  0  0  0  0  0  0  0
   -3.2258    0.3622    0.7124 C   0  0  0  0  0  0  0  0  0  0  0  0
   -1.7764   -0.2062    0.8156 C   0  0  0  0  0  0  0  0  0  0  0  0
   -0.9299    0.4672   -0.1876 N   0  0  0  0  0  0  0  0  0  0  0  0
    0.1726   -0.2968   -0.7230 C   0  0  0  0  0  0  0  0  0  0  0  0
    0.3307   -1.4230   -0.2427 O   0  0  0  0  0  0  0  0  0  0  0  0
    0.9806    0.3053   -1.7699 C   0  0  0  0  0  0  0  0  0  0  0  0
    2.1210   -0.7853   -2.0677 N   0  0  0  0  0  0  0  0  0  0  0  0
    2.7961   -1.1128   -1.6317 C   0  0  0  0  0  0  0  0  0  0  0  0
    3.3440   -1.3772   -1.2900 N   0  0  0  0  0  4  0  0  0  0  0  0
    4.0923   -1.7360   -0.8365 N   0  0  0  0  0  0  0  0  0  0  0  0
    2.8079   -0.3262   -0.1216 N   0  0  0  0  0  0  0  0  0  0  0  0
   -1.7799    0.5102    2.1356 C   0  0  0  0  0  0  0  0  0  0  0  0
   -3.5805    0.4978   -0.2955 H   0  0  0  0  0  0  0  0  0  0  0  0
   -3.8828   -0.2503    1.3733 H   0  0  0  0  0  0  0  0  0  0  0  0
   -1.6835   -1.2882    0.8524 H   0  0  0  0  0  0  0  0  0  0  0  0
   -1.1623    1.4265   -0.4253 H   0  0  0  0  0  0  0  0  0  0  0  0
    0.5052    0.3824   -2.7358 H   0  0  0  0  0  0  0  0  0  0  0  0
    1.5717    1.1546   -1.4716 H   0  0  0  0  0  0  0  0  0  0  0  0
    4.6022   -1.5806    0.2166 H   0  0  0  0  0  0  0  0  0  0  0  0
    3.3978    0.2475   -0.7736 H   0  0  0  0  0  0  0  0  0  0  0  0
   -2.4219   -0.0599    2.8558 H   0  0  0  0  0  0  0  0  0  0  0  0
   -0.8330    0.8680    2.5522 H   0  0  0  0  0  0  0  0  0  0  0  0
  1  2  2  0
  2  3  1  0
  3  4  1  0
  4  5  1  0
  5  6  1  0
  6  7  2  0
  6  8  1  0
  8  9  1  0
  9 10  1  0
 10 11  3  0
 11 12  1  0
 12 13  1  0
  4 14  1  0
 14  2  1  0
 13  9  1  0
  3 15  1  0
  3 16  1  0
  4 17  1  0
  5 18  1  0
  8 19  1  0
  8 20  1  0
 12 21  1  0
 13 22  1  0
 14 23  1  0
 14 24  1  0
M  CHG  1  11   1
M  END
$$$$

     RDKit          3D

 24 25  0  0  0  0  0  0  0  0999 V2000
   -4.5704    0.9034   -0.5061 O   0  0  0  0  0  0  0  0  0  0  0  0
   -3.5633   -0.0596   -0.3787 C   0  0  0  0  0  0  0  0  0  0  0  0
   -2.8541   -1.0553   -0.9764 C   0  0  0  0  0  0  0  0  0  0  0  0
   -1.8511   -1.0411    0.1520 C   0  0  0  0  0  0  0  0  0  0  0  0
   -0.6529   -0.3006   -0.0970 N   0  0  0  0  0  0  0  0  0  0  0  0
    0.1025    0.4032    0.8636 C   0  0  0  0  0  0  0  0  0  0  0  0
   -0.2423    0.4101    2.0492 O   0  0  0  0  0  0  0  0  0  0  0  0
    1.3445    1.2055    0.5155 C   0  0  0  0  0  0  0  0  0  0  0  0
    1.9026    0.2314   -0.6107 N   0  0  0  0  0  0  0  0  0  0  0  0
    2.8501   -0.0734   -0.8185 C   0  0  0  0  0  0  0  0  0  0  0  0
    3.4158   -0.2460   -0.9463 N   0  0  0  0  0  4  0  0  0  0  0  0
    4.3476   -0.5123   -1.1539 N   0  0  0  0  0  0  0  0  0  0  0  0
    3.7926    1.1885   -0.1972 N   0  0  0  0  0  0  0  0  0  0  0  0
   -2.8800   -0.1327    0.9082 C   0  0  0  0  0  0  0  0  0  0  0  0
   -2.2751   -0.8451   -1.9940 H   0  0  0  0  0  0  0  0  0  0  0  0
   -3.2960   -2.1107   -1.0365 H   0  0  0  0  0  0  0  0  0  0  0  0
   -1.7881   -1.8885    0.8086 H   0  0  0  0  0  0  0  0  0  0  0  0
   -0.3050   -0.2147   -1.1339 H   0  0  0  0  0  0  0  0  0  0  0  0
    1.1209    2.1275    0.1271 H   0  0  0  0  0  0  0  0  0  0  0  0
    2.0742    1.1963    1.3348 H   0  0  0  0  0  0  0  0  0  0  0  0
    5.4035   -0.1202   -0.9311 H   0  0  0  0  0  0  0  0  0  0  0  0
    3.7382    0.6306    0.5299 H   0  0  0  0  0  0  0  0  0  0  0  0
   -3.4115   -0.5911    1.7098 H   0  0  0  0  0  0  0  0  0  0  0  0
   -2.4027    0.8949    1.1914 H   0  0  0  0  0  0  0  0  0  0  0  0
  1  2  2  0
  2  3  1  0
  3  4  1  0
  4  5  1  0
  5  6  1  0
  6  7  2  0
  6  8  1  0
  8  9  1  0
  9 10  1  0
 10 11  3  0
 11 12  1  0
 12 13  1  0
  4 14  1  0
 14  2  1  0
 13  9  1  0
  3 15  1  0
  3 16  1  0
  4 17  1  0
  5 18  1  0
  8 19  1  0
  8 20  1  0
 12 21  1  0
 13 22  1  0
 14 23  1  0
 14 24  1  0
M  CHG  1  11   1
M  END
$$$$

     RDKit          3D

 24 25  0  0  0  0  0  0  0  0999 V2000
   -4.6439   -0.9481   -1.9617 O   0  0  0  0  0  0  0  0  0  0  0  0
   -3.8593   -0.2985   -1.3560 C   0  0  0  0  0  0  0  0  0  0  0  0
   -3.0199    0.9685   -1.5052 C   0  0  0  0  0  0  0  0  0  0  0  0
   -1.9340    0.0073   -0.9600 C   0  0  0  0  0  0  0  0  0  0  0  0
   -0.7958    0.2309   -0.2907 N   0  0  0  0  0  0  0  0  0  0  0  0
    0.2453    0.7757    0.4492 C   0  0  0  0  0  0  0  0  0  0  0  0
    0.1918    1.9059    0.7876 O   0  0  0  0  0  0  0  0  0  0  0  0
    1.3989   -0.2181    0.7727 C   0  0  0  0  0  0  0  0  0  0  0  0
    2.1935    0.6703    1.6565 N   0  0  0  0  0  0  0  0  0  0  0  0
    3.3971    1.0590    1.5590 C   0  0  0  0  0  0  0  0  0  0  0  0
    3.7314    1.1619    1.5357 N   0  0  0  0  0  4  0  0  0  0  0  0
    4.7923    1.4830    1.4431 N   0  0  0  0  0  0  0  0  0  0  0  0
    3.9136   -0.2334    0.7082 N   0  0  0  0  0  0  0  0  0  0  0  0
   -3.1736   -0.3870   -0.0101 C   0  0  0  0  0  0  0  0  0  0  0  0
   -2.9271    1.4575   -2.4028 H   0  0  0  0  0  0  0  0  0  0  0  0
   -3.3346    1.7147   -0.6114 H   0  0  0  0  0  0  0  0  0  0  0  0
   -1.8956   -0.7728   -1.7704 H   0  0  0  0  0  0  0  0  0  0  0  0
   -0.2355   -0.9153   -0.5472 H   0  0  0  0  0  0  0  0  0  0  0  0
    1.8879   -0.1032   -0.3326 H   0  0  0  0  0  0  0  0  0  0  0  0
    1.0999   -1.1658    0.9702 H   0  0  0  0  0  0  0  0  0  0  0  0
    5.6962    1.1875    0.9502 H   0  0  0  0  0  0  0  0  0  0  0  0
    3.6830    0.3349   -0.1589 H   0  0  0  0  0  0  0  0  0  0  0  0
   -3.3218    0.5131    0.6655 H   0  0  0  0  0  0  0  0  0  0  0  0
   -3.0897   -1.3548    0.4092 H   0  0  0  0  0  0  0  0  0  0  0  0
  1  2  2  0
  2  3  1  0
  3  4  1  0
  4  5  1  0
  5  6  1  0
  6  7  2  0
  6  8  1  0
  8  9  1  0
  9 10  1  0
 10 11  3  0
 11 12  1  0
 12 13  1  0
  4 14  1  0
 14  2  1  0
 13  9  1  0
  3 15  1  0
  3 16  1  0
  4 17  1  0
  5 18  1  0
  8 19  1  0
  8 20  1  0
 12 21  1  0
 13 22  1  0
 14 23  1  0
 14 24  1  0
M  CHG  1  11   1
M  END
$$$$

     RDKit          3D

 24 25  0  0  0  0  0  0  0  0999 V2000
   -5.0047    0.6908   -0.6884 O   0  0  0  0  0  0  0  0  0  0  0  0
   -3.9201    0.5736   -1.2337 C   0  0  0  0  0  0  0  0  0  0  0  0
   -2.7200    1.2540   -0.2652 C   0  0  0  0  0  0  0  0  0  0  0  0
   -1.9636    0.0628   -0.9415 C   0  0  0  0  0  0  0  0  0  0  0  0
   -0.5335    0.3334   -0.8595 N   0  0  0  0  0  0  0  0  0  0  0  0
    0.1903   -0.7161   -0.1948 C   0  0  0  0  0  0  0  0  0  0  0  0
   -0.7669   -1.7586   -0.0735 O   0  0  0  0  0  0  0  0  0  0  0  0
    1.3669   -1.1342    0.3824 C   0  0  0  0  0  0  0  0  0  0  0  0
    2.4991   -0.3197   -0.1633 N   0  0  0  0  0  0  0  0  0  0  0  0
    3.5911    0.0753    0.0912 C   0  0  0  0  0  0  0  0  0  0  0  0
    3.6981    0.1149    0.1166 N   0  0  0  0  0  4  0  0  0  0  0  0
    4.7475    0.5234    0.3651 N   0  0  0  0  0  0  0  0  0  0  0  0
    3.3280   -0.3407    1.6406 N   0  0  0  0  0  0  0  0  0  0  0  0
   -2.8615    0.2756   -2.1116 C   0  0  0  0  0  0  0  0  0  0  0  0
   -2.9171    1.0371    0.7341 H   0  0  0  0  0  0  0  0  0  0  0  0
   -2.5555    2.2074   -0.7325 H   0  0  0  0  0  0  0  0  0  0  0  0
   -2.3562   -0.7807   -0.3026 H   0  0  0  0  0  0  0  0  0  0  0  0
   -0.0488    1.1060   -1.1809 H   0  0  0  0  0  0  0  0  0  0  0  0
    1.2229   -0.7843    1.5589 H   0  0  0  0  0  0  0  0  0  0  0  0
    1.4456   -2.1640    0.5702 H   0  0  0  0  0  0  0  0  0  0  0  0
    5.1840    0.6191    1.4991 H   0  0  0  0  0  0  0  0  0  0  0  0
    3.8557   -1.2785    1.1303 H   0  0  0  0  0  0  0  0  0  0  0  0
   -3.0445   -0.6788   -2.7585 H   0  0  0  0  0  0  0  0  0  0  0  0
   -2.4369    1.0819   -2.7562 H   0  0  0  0  0  0  0  0  0  0  0  0
  1  2  2  0
  2  3  1  0
  3  4  1  0
  4  5  1  0
  5  6  1  0
  6  7  2  0
  6  8  1  0
  8  9  1  0
  9 10  1  0
 10 11  3  0
 11 12  1  0
 12 13  1  0
  4 14  1  0
 14  2  1  0
 13  9  1  0
  3 15  1  0
  3 16  1  0
  4 17  1  0
  5 18  1  0
  8 19  1  0
  8 20  1  0
 12 21  1  0
 13 22  1  0
 14 23  1  0
 14 24  1  0
M  CHG  1  11   1
M  END
$$$$

     RDKit          3D

 24 25  0  0  0  0  0  0  0  0999 V2000
   -1.3516   -1.9697    3.7567 O   0  0  0  0  0  0  0  0  0  0  0  0
   -1.6487   -1.4200    2.9067 C   0  0  0  0  0  0  0  0  0  0  0  0
   -2.5176   -0.2573    2.3807 C   0  0  0  0  0  0  0  0  0  0  0  0
   -1.8779   -0.2812    1.0598 C   0  0  0  0  0  0  0  0  0  0  0  0
   -0.9977    0.7459    0.5754 N   0  0  0  0  0  0  0  0  0  0  0  0
   -0.3381    0.6384   -0.7751 C   0  0  0  0  0  0  0  0  0  0  0  0
   -0.7663   -0.7381   -1.0760 O   0  0  0  0  0  0  0  0  0  0  0  0
    0.3961    1.3744   -1.5647 C   0  0  0  0  0  0  0  0  0  0  0  0
    1.2583    0.3400   -2.6733 N   0  0  0  0  0  0  0  0  0  0  0  0
    2.1488    0.2033   -2.6005 C   0  0  0  0  0  0  0  0  0  0  0  0
    3.0889    0.0555   -2.5073 N   0  0  0  0  0  4  0  0  0  0  0  0
    4.0292   -0.0893   -2.4213 N   0  0  0  0  0  0  0  0  0  0  0  0
    2.8764    1.1935   -1.3677 N   0  0  0  0  0  0  0  0  0  0  0  0
   -1.2195   -1.5414    1.3744 C   0  0  0  0  0  0  0  0  0  0  0  0
   -3.5386   -0.5149    2.5972 H   0  0  0  0  0  0  0  0  0  0  0  0
   -2.1606    0.7294    2.9205 H   0  0  0  0  0  0  0  0  0  0  0  0
   -2.6640   -0.4681    0.2143 H   0  0  0  0  0  0  0  0  0  0  0  0
   -0.7413    1.5812    1.0970 H   0  0  0  0  0  0  0  0  0  0  0  0
   -0.1337    1.8950   -2.4855 H   0  0  0  0  0  0  0  0  0  0  0  0
    1.0647    2.1218   -1.2647 H   0  0  0  0  0  0  0  0  0  0  0  0
    4.8268    0.3797   -1.8007 H   0  0  0  0  0  0  0  0  0  0  0  0
    2.4936    0.3287   -0.9098 H   0  0  0  0  0  0  0  0  0  0  0  0
   -1.9868   -2.4961    1.1762 H   0  0  0  0  0  0  0  0  0  0  0  0
   -0.2404   -1.8106    1.3878 H   0  0  0  0  0  0  0  0  0  0  0  0
  1  2  2  0
  2  3  1  0
  3  4  1  0
  4  5  1  0
  5  6  1  0
  6  7  2  0
  6  8  1  0
  8  9  1  0
  9 10  1  0
 10 11  3  0
 11 12  1  0
 12 13  1  0
  4 14  1  0
 14  2  1  0
 13  9  1  0
  3 15  1  0
  3 16  1  0
  4 17  1  0
  5 18  1  0
  8 19  1  0
  8 20  1  0
 12 21  1  0
 13 22  1  0
 14 23  1  0
 14 24  1  0
M  CHG  1  11   1
M  END
$$$$
