
     RDKit          3D

 31 32  0  0  0  0  0  0  0  0999 V2000
    4.2898    0.9837    0.5241 C   0  0  0  0  0  0  0  0  0  0  0  0
    3.1585    0.2595   -0.0173 N   0  0  0  0  0  4  0  0  0  0  0  0
    2.0508    0.7847   -0.4177 C   0  0  0  0  0  0  0  0  0  0  0  0
    1.0965   -0.0324   -0.7637 C   0  0  0  0  0  0  0  0  0  0  0  0
   -0.2923    0.3043   -1.1347 C   0  0  2  0  0  0  0  0  0  0  0  0
   -0.4621    1.7031   -1.0648 O   0  0  0  0  0  0  0  0  0  0  0  0
   -1.2951   -0.2899   -0.1702 C   0  0  2  0  0  0  0  0  0  0  0  0
   -1.2307   -1.7864   -0.1011 C   0  0  0  0  0  0  0  0  0  0  0  0
   -2.6966    0.0865   -0.6045 C   0  0  0  0  0  0  0  0  0  0  0  0
   -3.3107    0.5278    0.7244 C   0  0  0  0  0  0  0  0  0  0  0  0
   -2.2062    1.2678    1.3067 N   0  0  0  0  0  0  0  0  0  0  0  0
   -1.1188    0.3115    1.2065 C   0  0  0  0  0  0  0  0  0  0  0  0
    1.6798   -1.3280   -0.7080 N   0  0  0  0  0  0  0  0  0  0  0  0
    2.9969   -1.1164   -0.2284 N   0  0  0  0  0  0  0  0  0  0  0  0
    5.1307    0.2802    0.6257 H   0  0  0  0  0  0  0  0  0  0  0  0
    3.9964    1.3683    1.5239 H   0  0  0  0  0  0  0  0  0  0  0  0
    4.5093    1.8420   -0.1395 H   0  0  0  0  0  0  0  0  0  0  0  0
   -0.5602    0.0100   -2.1638 H   0  0  0  0  0  0  0  0  0  0  0  0
    0.1782    2.0660   -0.3954 H   0  0  0  0  0  0  0  0  0  0  0  0
   -0.5111   -2.1689    0.6499 H   0  0  0  0  0  0  0  0  0  0  0  0
   -1.1195   -2.2261   -1.0990 H   0  0  0  0  0  0  0  0  0  0  0  0
   -2.2408   -2.1295    0.2690 H   0  0  0  0  0  0  0  0  0  0  0  0
   -3.2463   -0.7836   -1.0261 H   0  0  0  0  0  0  0  0  0  0  0  0
   -2.6965    0.9449   -1.3019 H   0  0  0  0  0  0  0  0  0  0  0  0
   -4.1936    1.1749    0.5531 H   0  0  0  0  0  0  0  0  0  0  0  0
   -3.5432   -0.3746    1.3076 H   0  0  0  0  0  0  0  0  0  0  0  0
   -1.9929    2.0588    0.6688 H   0  0  0  0  0  0  0  0  0  0  0  0
   -0.1427    0.8004    1.3471 H   0  0  0  0  0  0  0  0  0  0  0  0
   -1.2466   -0.4845    1.9810 H   0  0  0  0  0  0  0  0  0  0  0  0
    1.2754   -2.2372   -0.9506 H   0  0  0  0  0  0  0  0  0  0  0  0
    3.7436   -1.8168   -0.0491 H   0  0  0  0  0  0  0  0  0  0  0  0
  1  2  1  0
  2  3  2  0
  3  4  2  0
  4  5  1  0
  5  6  1  0
  5  7  1  0
  7  8  1  1
  7  9  1  0
  9 10  1  0
 10 11  1  0
 11 12  1  0
  4 13  1  0
 13 14  1  0
 14  2  1  0
 12  7  1  0
  1 15  1  0
  1 16  1  0
  1 17  1  0
  5 18  1  6
  6 19  1  0
  8 20  1  0
  8 21  1  0
  8 22  1  0
  9 23  1  0
  9 24  1  0
 10 25  1  0
 10 26  1  0
 11 27  1  0
 12 28  1  0
 12 29  1  0
 13 30  1  0
 14 31  1  0
M  CHG  1   2   1
M  END
$$$$

     RDKit          3D

 31 32  0  0  0  0  0  0  0  0999 V2000
    4.6607   -0.4682    0.7513 C   0  0  0  0  0  0  0  0  0  0  0  0
    3.3199   -0.0077    0.4906 N   0  0  0  0  0  4  0  0  0  0  0  0
    2.2251   -0.6482    0.4063 C   0  0  0  0  0  0  0  0  0  0  0  0
    1.2255   -0.0089   -0.1719 C   0  0  0  0  0  0  0  0  0  0  0  0
    0.0105   -0.6237   -0.6884 C   0  0  2  0  0  0  0  0  0  0  0  0
   -0.1545   -0.3946   -2.0570 O   0  0  0  0  0  0  0  0  0  0  0  0
   -1.2451   -0.1853   -0.0062 C   0  0  2  0  0  0  0  0  0  0  0  0
   -1.1509   -0.5365    1.4613 C   0  0  0  0  0  0  0  0  0  0  0  0
   -2.4154   -1.0154   -0.5505 C   0  0  0  0  0  0  0  0  0  0  0  0
   -3.5692   -0.1000   -0.1161 C   0  0  0  0  0  0  0  0  0  0  0  0
   -3.1070    1.1720   -0.6041 N   0  0  0  0  0  0  0  0  0  0  0  0
   -1.6856    1.2031   -0.2836 C   0  0  0  0  0  0  0  0  0  0  0  0
    1.6265    1.3622   -0.1577 N   0  0  0  0  0  0  0  0  0  0  0  0
    2.9575    1.3445    0.2648 N   0  0  0  0  0  0  0  0  0  0  0  0
    4.6264   -1.5142    1.1351 H   0  0  0  0  0  0  0  0  0  0  0  0
    5.1609    0.1240    1.5721 H   0  0  0  0  0  0  0  0  0  0  0  0
    5.3233   -0.3706   -0.1395 H   0  0  0  0  0  0  0  0  0  0  0  0
    0.0812   -1.7241   -0.5756 H   0  0  0  0  0  0  0  0  0  0  0  0
    0.1053   -1.1655   -2.6082 H   0  0  0  0  0  0  0  0  0  0  0  0
   -0.1216   -0.3814    1.8436 H   0  0  0  0  0  0  0  0  0  0  0  0
   -1.9177   -0.0515    2.0704 H   0  0  0  0  0  0  0  0  0  0  0  0
   -1.3292   -1.6394    1.5314 H   0  0  0  0  0  0  0  0  0  0  0  0
   -2.5256   -1.9674   -0.0343 H   0  0  0  0  0  0  0  0  0  0  0  0
   -2.4090   -1.0614   -1.6416 H   0  0  0  0  0  0  0  0  0  0  0  0
   -4.5187   -0.4145   -0.5902 H   0  0  0  0  0  0  0  0  0  0  0  0
   -3.6456   -0.0583    0.9864 H   0  0  0  0  0  0  0  0  0  0  0  0
   -3.3106    1.3359   -1.5942 H   0  0  0  0  0  0  0  0  0  0  0  0
   -1.5686    1.9048    0.5576 H   0  0  0  0  0  0  0  0  0  0  0  0
   -1.1850    1.5505   -1.2097 H   0  0  0  0  0  0  0  0  0  0  0  0
    0.9952    2.1472   -0.4219 H   0  0  0  0  0  0  0  0  0  0  0  0
    3.5412    2.1926    0.3798 H   0  0  0  0  0  0  0  0  0  0  0  0
  1  2  1  0
  2  3  2  0
  3  4  2  0
  4  5  1  0
  5  6  1  0
  5  7  1  0
  7  8  1  1
  7  9  1  0
  9 10  1  0
 10 11  1  0
 11 12  1  0
  4 13  1  0
 13 14  1  0
 14  2  1  0
 12  7  1  0
  1 15  1  0
  1 16  1  0
  1 17  1  0
  5 18  1  6
  6 19  1  0
  8 20  1  0
  8 21  1  0
  8 22  1  0
  9 23  1  0
  9 24  1  0
 10 25  1  0
 10 26  1  0
 11 27  1  0
 12 28  1  0
 12 29  1  0
 13 30  1  0
 14 31  1  0
M  CHG  1   2   1
M  END
$$$$

     RDKit          3D

 31 32  0  0  0  0  0  0  0  0999 V2000
   -3.8101   -1.3213    0.8749 C   0  0  0  0  0  0  0  0  0  0  0  0
   -2.9400   -0.2319    0.5153 N   0  0  0  0  0  4  0  0  0  0  0  0
   -1.6604   -0.2476    0.3736 C   0  0  0  0  0  0  0  0  0  0  0  0
   -1.1344    0.8674   -0.0431 C   0  0  0  0  0  0  0  0  0  0  0  0
    0.2496    1.2161   -0.3982 C   0  0  2  0  0  0  0  0  0  0  0  0
    0.2270    1.6253   -1.7518 O   0  0  0  0  0  0  0  0  0  0  0  0
    1.1992    0.0656   -0.3116 C   0  0  2  0  0  0  0  0  0  0  0  0
    0.8494   -1.0735   -1.2086 C   0  0  0  0  0  0  0  0  0  0  0  0
    1.4610   -0.3803    1.1026 C   0  0  0  0  0  0  0  0  0  0  0  0
    2.8498   -0.9973    0.9635 C   0  0  0  0  0  0  0  0  0  0  0  0
    3.5387   -0.1297    0.0601 N   0  0  0  0  0  0  0  0  0  0  0  0
    2.5815    0.5963   -0.7108 C   0  0  0  0  0  0  0  0  0  0  0  0
   -2.2171    1.7883   -0.1078 N   0  0  0  0  0  0  0  0  0  0  0  0
   -3.3655    1.0743    0.2511 N   0  0  0  0  0  0  0  0  0  0  0  0
   -3.9884   -1.9677   -0.0172 H   0  0  0  0  0  0  0  0  0  0  0  0
   -4.7757   -0.9444    1.2104 H   0  0  0  0  0  0  0  0  0  0  0  0
   -3.3872   -1.9186    1.7328 H   0  0  0  0  0  0  0  0  0  0  0  0
    0.6105    2.0680    0.1740 H   0  0  0  0  0  0  0  0  0  0  0  0
   -0.1067    0.8089   -2.2423 H   0  0  0  0  0  0  0  0  0  0  0  0
   -0.2146   -1.0905   -1.5045 H   0  0  0  0  0  0  0  0  0  0  0  0
    1.4225   -1.0052   -2.1790 H   0  0  0  0  0  0  0  0  0  0  0  0
    1.1562   -2.0591   -0.7787 H   0  0  0  0  0  0  0  0  0  0  0  0
    0.7253   -1.0972    1.4804 H   0  0  0  0  0  0  0  0  0  0  0  0
    1.5752    0.5152    1.7416 H   0  0  0  0  0  0  0  0  0  0  0  0
    2.7709   -1.9998    0.4887 H   0  0  0  0  0  0  0  0  0  0  0  0
    3.3600   -1.0801    1.9444 H   0  0  0  0  0  0  0  0  0  0  0  0
    4.2099    0.4990    0.5811 H   0  0  0  0  0  0  0  0  0  0  0  0
    2.6274    1.6638   -0.3886 H   0  0  0  0  0  0  0  0  0  0  0  0
    2.7325    0.5334   -1.8015 H   0  0  0  0  0  0  0  0  0  0  0  0
   -2.1979    2.7811   -0.3619 H   0  0  0  0  0  0  0  0  0  0  0  0
   -4.3487    1.4414    0.3110 H   0  0  0  0  0  0  0  0  0  0  0  0
  1  2  1  0
  2  3  2  0
  3  4  2  0
  4  5  1  0
  5  6  1  0
  5  7  1  0
  7  8  1  6
  7  9  1  0
  9 10  1  0
 10 11  1  0
 11 12  1  0
  4 13  1  0
 13 14  1  0
 14  2  1  0
 12  7  1  0
  1 15  1  0
  1 16  1  0
  1 17  1  0
  5 18  1  1
  6 19  1  0
  8 20  1  0
  8 21  1  0
  8 22  1  0
  9 23  1  0
  9 24  1  0
 10 25  1  0
 10 26  1  0
 11 27  1  0
 12 28  1  0
 12 29  1  0
 13 30  1  0
 14 31  1  0
M  CHG  1   2   1
M  END
$$$$

     RDKit          3D

 31 32  0  0  0  0  0  0  0  0999 V2000
    4.4522   -0.3007    0.2246 C   0  0  0  0  0  0  0  0  0  0  0  0
    3.1630    0.2070   -0.1824 N   0  0  0  0  0  4  0  0  0  0  0  0
    2.1634    0.4896    0.5505 C   0  0  0  0  0  0  0  0  0  0  0  0
    1.0337    0.6781   -0.0842 C   0  0  0  0  0  0  0  0  0  0  0  0
   -0.3011    0.7546    0.5030 C   0  0  2  0  0  0  0  0  0  0  0  0
   -0.1739    0.6722    1.9124 O   0  0  0  0  0  0  0  0  0  0  0  0
   -1.2403   -0.3540    0.1337 C   0  0  2  0  0  0  0  0  0  0  0  0
   -0.7499   -1.7188    0.5309 C   0  0  0  0  0  0  0  0  0  0  0  0
   -1.8275   -0.2704   -1.2329 C   0  0  0  0  0  0  0  0  0  0  0  0
   -2.7016    0.9832   -1.0881 C   0  0  0  0  0  0  0  0  0  0  0  0
   -3.2594    0.8798    0.2292 N   0  0  0  0  0  0  0  0  0  0  0  0
   -2.5053   -0.1015    0.9777 C   0  0  0  0  0  0  0  0  0  0  0  0
    1.4235    0.7823   -1.4464 N   0  0  0  0  0  0  0  0  0  0  0  0
    2.8079    0.4748   -1.5034 N   0  0  0  0  0  0  0  0  0  0  0  0
    4.7980   -1.1497   -0.4330 H   0  0  0  0  0  0  0  0  0  0  0  0
    5.2528    0.4863    0.1332 H   0  0  0  0  0  0  0  0  0  0  0  0
    4.4381   -0.7159    1.2615 H   0  0  0  0  0  0  0  0  0  0  0  0
   -0.8217    1.7132    0.3172 H   0  0  0  0  0  0  0  0  0  0  0  0
    0.5739    0.0333    2.1025 H   0  0  0  0  0  0  0  0  0  0  0  0
   -1.5959   -2.4236    0.4031 H   0  0  0  0  0  0  0  0  0  0  0  0
   -0.5060   -1.6841    1.6096 H   0  0  0  0  0  0  0  0  0  0  0  0
    0.1148   -2.0448   -0.0619 H   0  0  0  0  0  0  0  0  0  0  0  0
   -2.5678   -1.1065   -1.3145 H   0  0  0  0  0  0  0  0  0  0  0  0
   -1.1390   -0.2271   -2.0679 H   0  0  0  0  0  0  0  0  0  0  0  0
   -2.1148    1.8810   -1.2753 H   0  0  0  0  0  0  0  0  0  0  0  0
   -3.4740    0.8985   -1.8959 H   0  0  0  0  0  0  0  0  0  0  0  0
   -4.2536    0.5371    0.1424 H   0  0  0  0  0  0  0  0  0  0  0  0
   -2.2544    0.2188    1.9929 H   0  0  0  0  0  0  0  0  0  0  0  0
   -3.0468   -1.0661    1.0348 H   0  0  0  0  0  0  0  0  0  0  0  0
    0.8681    1.0274   -2.2667 H   0  0  0  0  0  0  0  0  0  0  0  0
    3.4435    0.4463   -2.3256 H   0  0  0  0  0  0  0  0  0  0  0  0
  1  2  1  0
  2  3  2  0
  3  4  2  0
  4  5  1  0
  5  6  1  0
  5  7  1  0
  7  8  1  1
  7  9  1  0
  9 10  1  0
 10 11  1  0
 11 12  1  0
  4 13  1  0
 13 14  1  0
 14  2  1  0
 12  7  1  0
  1 15  1  0
  1 16  1  0
  1 17  1  0
  5 18  1  1
  6 19  1  0
  8 20  1  0
  8 21  1  0
  8 22  1  0
  9 23  1  0
  9 24  1  0
 10 25  1  0
 10 26  1  0
 11 27  1  0
 12 28  1  0
 12 29  1  0
 13 30  1  0
 14 31  1  0
M  CHG  1   2   1
M  END
$$$$

     RDKit          3D

 31 32  0  0  0  0  0  0  0  0999 V2000
    3.8876    0.4028   -1.3553 C   0  0  0  0  0  0  0  0  0  0  0  0
    2.8823   -0.0040   -0.4164 N   0  0  0  0  0  4  0  0  0  0  0  0
    1.6039   -0.0561   -0.5498 C   0  0  0  0  0  0  0  0  0  0  0  0
    0.9533   -0.4529    0.5038 C   0  0  0  0  0  0  0  0  0  0  0  0
   -0.4864   -0.6017    0.6921 C   0  0  2  0  0  0  0  0  0  0  0  0
   -0.7873   -1.9417    1.0058 O   0  0  0  0  0  0  0  0  0  0  0  0
   -1.3162   -0.2245   -0.4821 C   0  0  2  0  0  0  0  0  0  0  0  0
   -1.0440   -1.0094   -1.7184 C   0  0  0  0  0  0  0  0  0  0  0  0
   -1.2393    1.2478   -0.8201 C   0  0  0  0  0  0  0  0  0  0  0  0
   -2.0246    1.8400    0.3541 C   0  0  0  0  0  0  0  0  0  0  0  0
   -3.0311    0.8864    0.6987 N   0  0  0  0  0  0  0  0  0  0  0  0
   -2.7833   -0.3255   -0.0384 C   0  0  0  0  0  0  0  0  0  0  0  0
    1.9421   -0.7283    1.4844 N   0  0  0  0  0  0  0  0  0  0  0  0
    3.1772   -0.4393    0.8906 N   0  0  0  0  0  0  0  0  0  0  0  0
    4.5698    1.1932   -0.9249 H   0  0  0  0  0  0  0  0  0  0  0  0
    4.5717   -0.4661   -1.5656 H   0  0  0  0  0  0  0  0  0  0  0  0
    3.4638    0.8362   -2.2734 H   0  0  0  0  0  0  0  0  0  0  0  0
   -0.8322   -0.0113    1.5650 H   0  0  0  0  0  0  0  0  0  0  0  0
   -0.1930   -2.4789    0.3921 H   0  0  0  0  0  0  0  0  0  0  0  0
   -0.9278   -2.0956   -1.5259 H   0  0  0  0  0  0  0  0  0  0  0  0
   -0.1931   -0.5641   -2.2592 H   0  0  0  0  0  0  0  0  0  0  0  0
   -1.9338   -0.8827   -2.3960 H   0  0  0  0  0  0  0  0  0  0  0  0
   -1.8585    1.4138   -1.7206 H   0  0  0  0  0  0  0  0  0  0  0  0
   -0.2219    1.6258   -0.8802 H   0  0  0  0  0  0  0  0  0  0  0  0
   -1.3262    2.0541    1.2103 H   0  0  0  0  0  0  0  0  0  0  0  0
   -2.4810    2.8032    0.0578 H   0  0  0  0  0  0  0  0  0  0  0  0
   -3.9792    1.2422    0.4089 H   0  0  0  0  0  0  0  0  0  0  0  0
   -2.8813   -1.1933    0.6568 H   0  0  0  0  0  0  0  0  0  0  0  0
   -3.4350   -0.4560   -0.9061 H   0  0  0  0  0  0  0  0  0  0  0  0
    1.8256   -1.0761    2.4613 H   0  0  0  0  0  0  0  0  0  0  0  0
    4.0981   -0.5380    1.3507 H   0  0  0  0  0  0  0  0  0  0  0  0
  1  2  1  0
  2  3  2  0
  3  4  2  0
  4  5  1  0
  5  6  1  0
  5  7  1  0
  7  8  1  6
  7  9  1  0
  9 10  1  0
 10 11  1  0
 11 12  1  0
  4 13  1  0
 13 14  1  0
 14  2  1  0
 12  7  1  0
  1 15  1  0
  1 16  1  0
  1 17  1  0
  5 18  1  1
  6 19  1  0
  8 20  1  0
  8 21  1  0
  8 22  1  0
  9 23  1  0
  9 24  1  0
 10 25  1  0
 10 26  1  0
 11 27  1  0
 12 28  1  0
 12 29  1  0
 13 30  1  0
 14 31  1  0
M  CHG  1   2   1
M  END
$$$$

     RDKit          3D

 31 32  0  0  0  0  0  0  0  0999 V2000
    4.0165   -1.0242    0.4009 C   0  0  0  0  0  0  0  0  0  0  0  0
    3.0307   -0.1211   -0.1590 N   0  0  0  0  0  4  0  0  0  0  0  0
    2.1948    0.6432    0.4624 C   0  0  0  0  0  0  0  0  0  0  0  0
    1.1449    1.0028   -0.2194 C   0  0  0  0  0  0  0  0  0  0  0  0
   -0.1323    1.4425    0.3214 C   0  0  2  0  0  0  0  0  0  0  0  0
   -0.0359    1.5494    1.7352 O   0  0  0  0  0  0  0  0  0  0  0  0
   -1.2806    0.4998    0.0918 C   0  0  2  0  0  0  0  0  0  0  0  0
   -2.5695    1.0264    0.6769 C   0  0  0  0  0  0  0  0  0  0  0  0
   -1.0663   -0.8698    0.6999 C   0  0  0  0  0  0  0  0  0  0  0  0
   -2.1782   -1.6513   -0.0144 C   0  0  0  0  0  0  0  0  0  0  0  0
   -2.4707   -0.9522   -1.2315 N   0  0  0  0  0  0  0  0  0  0  0  0
   -1.4852    0.1105   -1.3537 C   0  0  0  0  0  0  0  0  0  0  0  0
    1.5407    0.8592   -1.5762 N   0  0  0  0  0  0  0  0  0  0  0  0
    2.7532    0.1347   -1.5131 N   0  0  0  0  0  0  0  0  0  0  0  0
    3.9689   -1.0069    1.4899 H   0  0  0  0  0  0  0  0  0  0  0  0
    3.8430   -2.0345   -0.0168 H   0  0  0  0  0  0  0  0  0  0  0  0
    5.0117   -0.6244    0.0924 H   0  0  0  0  0  0  0  0  0  0  0  0
   -0.4497    2.4414   -0.0303 H   0  0  0  0  0  0  0  0  0  0  0  0
    0.2520    0.6473    2.0421 H   0  0  0  0  0  0  0  0  0  0  0  0
   -2.7066    2.0599    0.3075 H   0  0  0  0  0  0  0  0  0  0  0  0
   -3.3958    0.3453    0.4319 H   0  0  0  0  0  0  0  0  0  0  0  0
   -2.4076    1.0910    1.7820 H   0  0  0  0  0  0  0  0  0  0  0  0
   -1.2104   -0.8523    1.7804 H   0  0  0  0  0  0  0  0  0  0  0  0
   -0.1229   -1.3307    0.4074 H   0  0  0  0  0  0  0  0  0  0  0  0
   -1.8410   -2.6896   -0.2351 H   0  0  0  0  0  0  0  0  0  0  0  0
   -3.0509   -1.6509    0.6591 H   0  0  0  0  0  0  0  0  0  0  0  0
   -3.4375   -0.6406   -1.3509 H   0  0  0  0  0  0  0  0  0  0  0  0
   -1.7881    0.9265   -2.0057 H   0  0  0  0  0  0  0  0  0  0  0  0
   -0.5277   -0.3783   -1.6734 H   0  0  0  0  0  0  0  0  0  0  0  0
    1.0655    1.2034   -2.4425 H   0  0  0  0  0  0  0  0  0  0  0  0
    3.3349   -0.1564   -2.3255 H   0  0  0  0  0  0  0  0  0  0  0  0
  1  2  1  0
  2  3  2  0
  3  4  2  0
  4  5  1  0
  5  6  1  0
  5  7  1  0
  7  8  1  1
  7  9  1  0
  9 10  1  0
 10 11  1  0
 11 12  1  0
  4 13  1  0
 13 14  1  0
 14  2  1  0
 12  7  1  0
  1 15  1  0
  1 16  1  0
  1 17  1  0
  5 18  1  6
  6 19  1  0
  8 20  1  0
  8 21  1  0
  8 22  1  0
  9 23  1  0
  9 24  1  0
 10 25  1  0
 10 26  1  0
 11 27  1  0
 12 28  1  0
 12 29  1  0
 13 30  1  0
 14 31  1  0
M  CHG  1   2   1
M  END
$$$$

     RDKit          3D

 31 32  0  0  0  0  0  0  0  0999 V2000
    4.1947    0.6336    0.6023 C   0  0  0  0  0  0  0  0  0  0  0  0
    3.0819   -0.0581   -0.0681 N   0  0  0  0  0  4  0  0  0  0  0  0
    2.1878    0.4651   -0.8013 C   0  0  0  0  0  0  0  0  0  0  0  0
    1.0889   -0.2198   -0.9540 C   0  0  0  0  0  0  0  0  0  0  0  0
   -0.1945    0.3170   -1.3787 C   0  0  2  0  0  0  0  0  0  0  0  0
   -0.0712    1.7055   -1.6313 O   0  0  0  0  0  0  0  0  0  0  0  0
   -1.3202    0.1736   -0.4263 C   0  0  2  0  0  0  0  0  0  0  0  0
   -2.5549    0.8055   -1.0849 C   0  0  0  0  0  0  0  0  0  0  0  0
   -1.1408    0.8483    0.8894 C   0  0  0  0  0  0  0  0  0  0  0  0
   -2.1815    0.1395    1.7562 C   0  0  0  0  0  0  0  0  0  0  0  0
   -2.7627   -0.9015    0.9432 N   0  0  0  0  0  0  0  0  0  0  0  0
   -1.7009   -1.2102   -0.0372 C   0  0  0  0  0  0  0  0  0  0  0  0
    1.4958   -1.5401   -0.6066 N   0  0  0  0  0  0  0  0  0  0  0  0
    2.7824   -1.4220   -0.0365 N   0  0  0  0  0  0  0  0  0  0  0  0
    3.8389    1.4114    1.2893 H   0  0  0  0  0  0  0  0  0  0  0  0
    4.8435   -0.1184    1.0563 H   0  0  0  0  0  0  0  0  0  0  0  0
    4.8225    1.1622   -0.1732 H   0  0  0  0  0  0  0  0  0  0  0  0
   -0.5433   -0.1011   -2.3684 H   0  0  0  0  0  0  0  0  0  0  0  0
    0.6916    1.7785   -2.2744 H   0  0  0  0  0  0  0  0  0  0  0  0
   -3.3561    0.9686   -0.3558 H   0  0  0  0  0  0  0  0  0  0  0  0
   -2.9462    0.1511   -1.8922 H   0  0  0  0  0  0  0  0  0  0  0  0
   -2.3068    1.7769   -1.5457 H   0  0  0  0  0  0  0  0  0  0  0  0
   -1.4688    1.9136    0.8321 H   0  0  0  0  0  0  0  0  0  0  0  0
   -0.1293    0.7689    1.3137 H   0  0  0  0  0  0  0  0  0  0  0  0
   -1.7271   -0.3319    2.6438 H   0  0  0  0  0  0  0  0  0  0  0  0
   -2.9800    0.8040    2.0866 H   0  0  0  0  0  0  0  0  0  0  0  0
   -2.9845   -1.7646    1.4585 H   0  0  0  0  0  0  0  0  0  0  0  0
   -2.0657   -1.8478   -0.8419 H   0  0  0  0  0  0  0  0  0  0  0  0
   -0.9133   -1.7120    0.5995 H   0  0  0  0  0  0  0  0  0  0  0  0
    0.9323   -2.4088   -0.7561 H   0  0  0  0  0  0  0  0  0  0  0  0
    3.3876   -2.1871    0.3327 H   0  0  0  0  0  0  0  0  0  0  0  0
  1  2  1  0
  2  3  2  0
  3  4  2  0
  4  5  1  0
  5  6  1  0
  5  7  1  0
  7  8  1  6
  7  9  1  0
  9 10  1  0
 10 11  1  0
 11 12  1  0
  4 13  1  0
 13 14  1  0
 14  2  1  0
 12  7  1  0
  1 15  1  0
  1 16  1  0
  1 17  1  0
  5 18  1  6
  6 19  1  0
  8 20  1  0
  8 21  1  0
  8 22  1  0
  9 23  1  0
  9 24  1  0
 10 25  1  0
 10 26  1  0
 11 27  1  0
 12 28  1  0
 12 29  1  0
 13 30  1  0
 14 31  1  0
M  CHG  1   2   1
M  END
$$$$

     RDKit          3D

 31 32  0  0  0  0  0  0  0  0999 V2000
    4.1240    0.6121   -0.7690 C   0  0  0  0  0  0  0  0  0  0  0  0
    3.0674   -0.0479   -0.0676 N   0  0  0  0  0  4  0  0  0  0  0  0
    2.2147    0.3956    0.7962 C   0  0  0  0  0  0  0  0  0  0  0  0
    1.1187   -0.3269    0.9380 C   0  0  0  0  0  0  0  0  0  0  0  0
   -0.1825    0.0790    1.4820 C   0  0  2  0  0  0  0  0  0  0  0  0
   -0.6308   -0.7670    2.5137 O   0  0  0  0  0  0  0  0  0  0  0  0
   -1.2734    0.3018    0.5042 C   0  0  2  0  0  0  0  0  0  0  0  0
   -2.5602    0.7174    1.2195 C   0  0  0  0  0  0  0  0  0  0  0  0
   -1.6254   -0.8531   -0.3752 C   0  0  0  0  0  0  0  0  0  0  0  0
   -2.1215   -0.2432   -1.6754 C   0  0  0  0  0  0  0  0  0  0  0  0
   -1.9741    1.1790   -1.5425 N   0  0  0  0  0  0  0  0  0  0  0  0
   -0.9807    1.3838   -0.5046 C   0  0  0  0  0  0  0  0  0  0  0  0
    1.5026   -1.5967    0.4291 N   0  0  0  0  0  0  0  0  0  0  0  0
    2.7548   -1.4051   -0.2146 N   0  0  0  0  0  0  0  0  0  0  0  0
    3.9065    0.7314   -1.8625 H   0  0  0  0  0  0  0  0  0  0  0  0
    4.3881    1.6000   -0.3626 H   0  0  0  0  0  0  0  0  0  0  0  0
    5.0498   -0.0205   -0.7273 H   0  0  0  0  0  0  0  0  0  0  0  0
   -0.0105    1.0660    2.0263 H   0  0  0  0  0  0  0  0  0  0  0  0
   -0.3365   -1.6942    2.3783 H   0  0  0  0  0  0  0  0  0  0  0  0
   -3.3518   -0.0515    1.1184 H   0  0  0  0  0  0  0  0  0  0  0  0
   -2.9718    1.6645    0.8336 H   0  0  0  0  0  0  0  0  0  0  0  0
   -2.3940    0.8442    2.3109 H   0  0  0  0  0  0  0  0  0  0  0  0
   -2.4608   -1.4806    0.0497 H   0  0  0  0  0  0  0  0  0  0  0  0
   -0.8219   -1.5415   -0.6204 H   0  0  0  0  0  0  0  0  0  0  0  0
   -1.5698   -0.6386   -2.5589 H   0  0  0  0  0  0  0  0  0  0  0  0
   -3.2010   -0.5213   -1.8517 H   0  0  0  0  0  0  0  0  0  0  0  0
   -2.9067    1.5656   -1.2327 H   0  0  0  0  0  0  0  0  0  0  0  0
   -1.1645    2.3614   -0.0262 H   0  0  0  0  0  0  0  0  0  0  0  0
    0.0384    1.3126   -0.9263 H   0  0  0  0  0  0  0  0  0  0  0  0
    1.0357   -2.5086    0.4763 H   0  0  0  0  0  0  0  0  0  0  0  0
    3.3372   -2.1176   -0.7023 H   0  0  0  0  0  0  0  0  0  0  0  0
  1  2  1  0
  2  3  2  0
  3  4  2  0
  4  5  1  0
  5  6  1  0
  5  7  1  0
  7  8  1  1
  7  9  1  0
  9 10  1  0
 10 11  1  0
 11 12  1  0
  4 13  1  0
 13 14  1  0
 14  2  1  0
 12  7  1  0
  1 15  1  0
  1 16  1  0
  1 17  1  0
  5 18  1  1
  6 19  1  0
  8 20  1  0
  8 21  1  0
  8 22  1  0
  9 23  1  0
  9 24  1  0
 10 25  1  0
 10 26  1  0
 11 27  1  0
 12 28  1  0
 12 29  1  0
 13 30  1  0
 14 31  1  0
M  CHG  1   2   1
M  END
$$$$
