
     RDKit          3D

 31 32  0  0  0  0  0  0  0  0999 V2000
   -3.7013    1.5261    0.5568 C   0  0  0  0  0  0  0  0  0  0  0  0
   -2.9741    0.7303   -0.3798 N   0  0  0  0  0  0  0  0  0  0  0  0
   -2.1462   -0.2534    0.2701 C   0  0  2  0  0  0  0  0  0  0  0  0
   -1.0667    0.3882    1.1516 C   0  0  0  0  0  0  0  0  0  0  0  0
   -0.2844   -0.7684    1.3919 O   0  0  0  0  0  0  0  0  0  0  0  0
    0.0101   -1.1425    0.0580 C   0  0  2  0  0  0  0  0  0  0  0  0
    0.3300   -2.6423    0.1200 C   0  0  0  0  0  0  0  0  0  0  0  0
    1.2028   -0.4131   -0.3856 C   0  0  0  0  0  0  0  0  0  0  0  0
    1.9351    0.3618    0.3612 C   0  0  0  0  0  0  0  0  0  0  0  0
    3.0186    0.8176   -0.1466 N   0  0  0  0  0  4  0  0  0  0  0  0
    3.9869    1.5664    0.6008 C   0  0  0  0  0  0  0  0  0  0  0  0
    2.9724    0.4096   -1.4811 N   0  0  0  0  0  0  0  0  0  0  0  0
    1.8199   -0.3809   -1.6673 N   0  0  0  0  0  0  0  0  0  0  0  0
   -1.2197   -0.9067   -0.7592 C   0  0  0  0  0  0  0  0  0  0  0  0
   -3.4871    1.3426    1.6100 H   0  0  0  0  0  0  0  0  0  0  0  0
   -4.8211    1.4555    0.4224 H   0  0  0  0  0  0  0  0  0  0  0  0
   -3.4670    2.6026    0.3208 H   0  0  0  0  0  0  0  0  0  0  0  0
   -3.6851    0.1720   -0.9282 H   0  0  0  0  0  0  0  0  0  0  0  0
   -2.7010   -1.0433    0.7924 H   0  0  0  0  0  0  0  0  0  0  0  0
   -0.5187    1.0692    0.4942 H   0  0  0  0  0  0  0  0  0  0  0  0
   -1.4727    0.8088    2.0630 H   0  0  0  0  0  0  0  0  0  0  0  0
    1.2411   -2.7506    0.7361 H   0  0  0  0  0  0  0  0  0  0  0  0
   -0.5501   -3.1170    0.6307 H   0  0  0  0  0  0  0  0  0  0  0  0
    0.4369   -2.9807   -0.9170 H   0  0  0  0  0  0  0  0  0  0  0  0
    4.0585    1.1127    1.6260 H   0  0  0  0  0  0  0  0  0  0  0  0
    3.5955    2.5840    0.7442 H   0  0  0  0  0  0  0  0  0  0  0  0
    5.0104    1.5316    0.1765 H   0  0  0  0  0  0  0  0  0  0  0  0
    3.6957    0.6790   -2.1732 H   0  0  0  0  0  0  0  0  0  0  0  0
    1.5014   -0.8308   -2.5374 H   0  0  0  0  0  0  0  0  0  0  0  0
   -1.6461   -1.8107   -1.1999 H   0  0  0  0  0  0  0  0  0  0  0  0
   -1.0736   -0.1178   -1.5515 H   0  0  0  0  0  0  0  0  0  0  0  0
  1  2  1  0
  2  3  1  0
  3  4  1  0
  4  5  1  0
  5  6  1  0
  6  7  1  1
  6  8  1  0
  8  9  2  0
  9 10  2  0
 10 11  1  0
 10 12  1  0
 12 13  1  0
  6 14  1  0
 14  3  1  0
 13  8  1  0
  1 15  1  0
  1 16  1  0
  1 17  1  0
  2 18  1  0
  3 19  1  1
  4 20  1  0
  4 21  1  0
  7 22  1  0
  7 23  1  0
  7 24  1  0
 11 25  1  0
 11 26  1  0
 11 27  1  0
 12 28  1  0
 13 29  1  0
 14 30  1  0
 14 31  1  0
M  CHG  1  10   1
M  END
$$$$

     RDKit          3D

 31 32  0  0  0  0  0  0  0  0999 V2000
    4.3455   -0.6136   -0.5134 C   0  0  0  0  0  0  0  0  0  0  0  0
    3.1709    0.2187   -0.7853 N   0  0  0  0  0  0  0  0  0  0  0  0
    2.1933    0.0274    0.2661 C   0  0  2  0  0  0  0  0  0  0  0  0
    1.6892   -1.3850    0.3336 C   0  0  0  0  0  0  0  0  0  0  0  0
    0.3039   -1.3466    0.3114 O   0  0  0  0  0  0  0  0  0  0  0  0
   -0.0990   -0.0789    0.6495 C   0  0  2  0  0  0  0  0  0  0  0  0
    0.0363    0.1470    2.1397 C   0  0  0  0  0  0  0  0  0  0  0  0
   -1.4481    0.2651    0.2115 C   0  0  0  0  0  0  0  0  0  0  0  0
   -2.2954   -0.4728   -0.4446 C   0  0  0  0  0  0  0  0  0  0  0  0
   -3.4891    0.0074   -0.5184 N   0  0  0  0  0  4  0  0  0  0  0  0
   -4.7011   -0.6272   -0.9793 C   0  0  0  0  0  0  0  0  0  0  0  0
   -3.4365    1.3243   -0.0544 N   0  0  0  0  0  0  0  0  0  0  0  0
   -2.1134    1.5011    0.4220 N   0  0  0  0  0  0  0  0  0  0  0  0
    0.9211    0.7722   -0.1175 C   0  0  0  0  0  0  0  0  0  0  0  0
    4.4803   -0.7728    0.5741 H   0  0  0  0  0  0  0  0  0  0  0  0
    4.2640   -1.6093   -1.0175 H   0  0  0  0  0  0  0  0  0  0  0  0
    5.2707   -0.1302   -0.9254 H   0  0  0  0  0  0  0  0  0  0  0  0
    3.5209    1.2017   -0.7523 H   0  0  0  0  0  0  0  0  0  0  0  0
    2.6077    0.3991    1.2201 H   0  0  0  0  0  0  0  0  0  0  0  0
    2.0772   -1.9560   -0.5537 H   0  0  0  0  0  0  0  0  0  0  0  0
    2.0346   -1.8956    1.2747 H   0  0  0  0  0  0  0  0  0  0  0  0
   -0.1191    1.2072    2.3726 H   0  0  0  0  0  0  0  0  0  0  0  0
    0.9910   -0.2635    2.5331 H   0  0  0  0  0  0  0  0  0  0  0  0
   -0.7808   -0.4342    2.6187 H   0  0  0  0  0  0  0  0  0  0  0  0
   -5.4928   -0.4901   -0.1855 H   0  0  0  0  0  0  0  0  0  0  0  0
   -5.1287   -0.1022   -1.8735 H   0  0  0  0  0  0  0  0  0  0  0  0
   -4.5905   -1.7077   -1.1257 H   0  0  0  0  0  0  0  0  0  0  0  0
   -4.1719    2.0455   -0.0405 H   0  0  0  0  0  0  0  0  0  0  0  0
   -1.7040    2.3736    0.8468 H   0  0  0  0  0  0  0  0  0  0  0  0
    0.9188    1.8116    0.1906 H   0  0  0  0  0  0  0  0  0  0  0  0
    0.7449    0.5838   -1.1802 H   0  0  0  0  0  0  0  0  0  0  0  0
  1  2  1  0
  2  3  1  0
  3  4  1  0
  4  5  1  0
  5  6  1  0
  6  7  1  1
  6  8  1  0
  8  9  2  0
  9 10  2  0
 10 11  1  0
 10 12  1  0
 12 13  1  0
  6 14  1  0
 14  3  1  0
 13  8  1  0
  1 15  1  0
  1 16  1  0
  1 17  1  0
  2 18  1  0
  3 19  1  1
  4 20  1  0
  4 21  1  0
  7 22  1  0
  7 23  1  0
  7 24  1  0
 11 25  1  0
 11 26  1  0
 11 27  1  0
 12 28  1  0
 13 29  1  0
 14 30  1  0
 14 31  1  0
M  CHG  1  10   1
M  END
$$$$

     RDKit          3D

 31 32  0  0  0  0  0  0  0  0999 V2000
   -3.4267    1.3496    0.0163 C   0  0  0  0  0  0  0  0  0  0  0  0
   -3.3386    0.0433   -0.5345 N   0  0  0  0  0  0  0  0  0  0  0  0
   -2.2057   -0.7250   -0.2005 C   0  0  2  0  0  0  0  0  0  0  0  0
   -2.0075   -1.0725    1.2292 C   0  0  0  0  0  0  0  0  0  0  0  0
   -0.6596   -0.8965    1.5491 O   0  0  0  0  0  0  0  0  0  0  0  0
    0.0489   -0.8890    0.3483 C   0  0  2  0  0  0  0  0  0  0  0  0
    0.2847   -2.3035   -0.1417 C   0  0  0  0  0  0  0  0  0  0  0  0
    1.3422   -0.1851    0.4556 C   0  0  0  0  0  0  0  0  0  0  0  0
    1.7135    0.9013   -0.1836 C   0  0  0  0  0  0  0  0  0  0  0  0
    2.9469    1.2231   -0.0444 N   0  0  0  0  0  4  0  0  0  0  0  0
    3.5807    2.2748   -0.8077 C   0  0  0  0  0  0  0  0  0  0  0  0
    3.4865    0.3858    0.9408 N   0  0  0  0  0  0  0  0  0  0  0  0
    2.4542   -0.5318    1.2726 N   0  0  0  0  0  0  0  0  0  0  0  0
   -0.8774   -0.1024   -0.5577 C   0  0  0  0  0  0  0  0  0  0  0  0
   -2.5671    2.0087   -0.2226 H   0  0  0  0  0  0  0  0  0  0  0  0
   -3.6646    1.3410    1.0914 H   0  0  0  0  0  0  0  0  0  0  0  0
   -4.3137    1.8513   -0.4721 H   0  0  0  0  0  0  0  0  0  0  0  0
   -3.4232    0.0893   -1.5680 H   0  0  0  0  0  0  0  0  0  0  0  0
   -2.2654   -1.6793   -0.8008 H   0  0  0  0  0  0  0  0  0  0  0  0
   -2.2044   -2.1717    1.4003 H   0  0  0  0  0  0  0  0  0  0  0  0
   -2.6488   -0.5176    1.9411 H   0  0  0  0  0  0  0  0  0  0  0  0
    0.3513   -3.0055    0.7303 H   0  0  0  0  0  0  0  0  0  0  0  0
    1.2410   -2.3107   -0.6836 H   0  0  0  0  0  0  0  0  0  0  0  0
   -0.4969   -2.6930   -0.7914 H   0  0  0  0  0  0  0  0  0  0  0  0
    4.6447    2.1044   -0.9845 H   0  0  0  0  0  0  0  0  0  0  0  0
    3.3928    3.2517   -0.2706 H   0  0  0  0  0  0  0  0  0  0  0  0
    3.0369    2.3975   -1.7765 H   0  0  0  0  0  0  0  0  0  0  0  0
    4.4384    0.4469    1.3241 H   0  0  0  0  0  0  0  0  0  0  0  0
    2.5326   -1.2824    1.9687 H   0  0  0  0  0  0  0  0  0  0  0  0
   -0.5993   -0.2535   -1.6190 H   0  0  0  0  0  0  0  0  0  0  0  0
   -0.7966    0.9509   -0.2358 H   0  0  0  0  0  0  0  0  0  0  0  0
  1  2  1  0
  2  3  1  0
  3  4  1  0
  4  5  1  0
  5  6  1  0
  6  7  1  6
  6  8  1  0
  8  9  2  0
  9 10  2  0
 10 11  1  0
 10 12  1  0
 12 13  1  0
  6 14  1  0
 14  3  1  0
 13  8  1  0
  1 15  1  0
  1 16  1  0
  1 17  1  0
  2 18  1  0
  3 19  1  6
  4 20  1  0
  4 21  1  0
  7 22  1  0
  7 23  1  0
  7 24  1  0
 11 25  1  0
 11 26  1  0
 11 27  1  0
 12 28  1  0
 13 29  1  0
 14 30  1  0
 14 31  1  0
M  CHG  1  10   1
M  END
$$$$

     RDKit          3D

 31 32  0  0  0  0  0  0  0  0999 V2000
   -4.3883   -0.1368    0.1319 C   0  0  0  0  0  0  0  0  0  0  0  0
   -3.2623   -0.8806   -0.3793 N   0  0  0  0  0  0  0  0  0  0  0  0
   -2.1121   -0.5307    0.4198 C   0  0  2  0  0  0  0  0  0  0  0  0
   -1.7499    0.9328    0.3148 C   0  0  0  0  0  0  0  0  0  0  0  0
   -0.4781    0.9498    0.8271 O   0  0  0  0  0  0  0  0  0  0  0  0
    0.1881   -0.2028    0.4230 C   0  0  2  0  0  0  0  0  0  0  0  0
    0.7096   -0.8558    1.6893 C   0  0  0  0  0  0  0  0  0  0  0  0
    1.3053    0.0689   -0.4810 C   0  0  0  0  0  0  0  0  0  0  0  0
    2.5624   -0.2519   -0.2551 C   0  0  0  0  0  0  0  0  0  0  0  0
    3.3989    0.5109   -0.8402 N   0  0  0  0  0  4  0  0  0  0  0  0
    4.7416    0.7707   -0.3696 C   0  0  0  0  0  0  0  0  0  0  0  0
    2.7074    0.9803   -1.9610 N   0  0  0  0  0  0  0  0  0  0  0  0
    1.3384    0.7049   -1.7538 N   0  0  0  0  0  0  0  0  0  0  0  0
   -0.8370   -1.1481   -0.1571 C   0  0  0  0  0  0  0  0  0  0  0  0
   -4.2428    0.2773    1.1341 H   0  0  0  0  0  0  0  0  0  0  0  0
   -5.2934   -0.7697    0.1331 H   0  0  0  0  0  0  0  0  0  0  0  0
   -4.5881    0.7202   -0.5730 H   0  0  0  0  0  0  0  0  0  0  0  0
   -3.4268   -1.9088   -0.2235 H   0  0  0  0  0  0  0  0  0  0  0  0
   -2.2074   -0.7859    1.4783 H   0  0  0  0  0  0  0  0  0  0  0  0
   -2.3999    1.5651    0.9711 H   0  0  0  0  0  0  0  0  0  0  0  0
   -1.7627    1.2885   -0.7475 H   0  0  0  0  0  0  0  0  0  0  0  0
    0.9100   -1.9341    1.5533 H   0  0  0  0  0  0  0  0  0  0  0  0
    1.6018   -0.3174    2.0411 H   0  0  0  0  0  0  0  0  0  0  0  0
   -0.0799   -0.6842    2.4773 H   0  0  0  0  0  0  0  0  0  0  0  0
    4.6894    1.1802    0.6841 H   0  0  0  0  0  0  0  0  0  0  0  0
    5.3578   -0.1542   -0.2764 H   0  0  0  0  0  0  0  0  0  0  0  0
    5.2373    1.5611   -0.9599 H   0  0  0  0  0  0  0  0  0  0  0  0
    3.1441    1.4400   -2.7766 H   0  0  0  0  0  0  0  0  0  0  0  0
    0.5196    0.9040   -2.3620 H   0  0  0  0  0  0  0  0  0  0  0  0
   -0.7096   -2.1899    0.1418 H   0  0  0  0  0  0  0  0  0  0  0  0
   -0.8734   -1.1040   -1.2749 H   0  0  0  0  0  0  0  0  0  0  0  0
  1  2  1  0
  2  3  1  0
  3  4  1  0
  4  5  1  0
  5  6  1  0
  6  7  1  1
  6  8  1  0
  8  9  2  0
  9 10  2  0
 10 11  1  0
 10 12  1  0
 12 13  1  0
  6 14  1  0
 14  3  1  0
 13  8  1  0
  1 15  1  0
  1 16  1  0
  1 17  1  0
  2 18  1  0
  3 19  1  1
  4 20  1  0
  4 21  1  0
  7 22  1  0
  7 23  1  0
  7 24  1  0
 11 25  1  0
 11 26  1  0
 11 27  1  0
 12 28  1  0
 13 29  1  0
 14 30  1  0
 14 31  1  0
M  CHG  1  10   1
M  END
$$$$

     RDKit          3D

 31 32  0  0  0  0  0  0  0  0999 V2000
    4.1547    1.0675   -0.1921 C   0  0  0  0  0  0  0  0  0  0  0  0
    2.9483    0.9348    0.5867 N   0  0  0  0  0  0  0  0  0  0  0  0
    2.1483   -0.1159    0.0473 C   0  0  2  0  0  0  0  0  0  0  0  0
    1.6418    0.1151   -1.3491 C   0  0  0  0  0  0  0  0  0  0  0  0
    0.2689    0.0755   -1.3013 O   0  0  0  0  0  0  0  0  0  0  0  0
   -0.0884   -0.7269   -0.2045 C   0  0  2  0  0  0  0  0  0  0  0  0
    0.1220   -2.1949   -0.5575 C   0  0  0  0  0  0  0  0  0  0  0  0
   -1.5061   -0.4972    0.1108 C   0  0  0  0  0  0  0  0  0  0  0  0
   -2.0122    0.6374    0.5486 C   0  0  0  0  0  0  0  0  0  0  0  0
   -3.2338    0.7881    0.1352 N   0  0  0  0  0  4  0  0  0  0  0  0
   -3.8986    2.0206   -0.1713 C   0  0  0  0  0  0  0  0  0  0  0  0
   -3.7813   -0.4979    0.0405 N   0  0  0  0  0  0  0  0  0  0  0  0
   -2.6384   -1.3490    0.0238 N   0  0  0  0  0  0  0  0  0  0  0  0
    0.8671   -0.3320    0.8634 C   0  0  0  0  0  0  0  0  0  0  0  0
    4.7295    0.1054   -0.1795 H   0  0  0  0  0  0  0  0  0  0  0  0
    3.9052    1.3354   -1.2217 H   0  0  0  0  0  0  0  0  0  0  0  0
    4.7729    1.8884    0.2430 H   0  0  0  0  0  0  0  0  0  0  0  0
    2.4435    1.8501    0.5723 H   0  0  0  0  0  0  0  0  0  0  0  0
    2.7496   -1.0549    0.0983 H   0  0  0  0  0  0  0  0  0  0  0  0
    1.9999    1.0785   -1.7818 H   0  0  0  0  0  0  0  0  0  0  0  0
    2.0008   -0.6946   -2.0243 H   0  0  0  0  0  0  0  0  0  0  0  0
   -0.7672   -2.5581   -1.1071 H   0  0  0  0  0  0  0  0  0  0  0  0
    1.0104   -2.3162   -1.1921 H   0  0  0  0  0  0  0  0  0  0  0  0
    0.2040   -2.7530    0.3734 H   0  0  0  0  0  0  0  0  0  0  0  0
   -4.7899    2.1153    0.4649 H   0  0  0  0  0  0  0  0  0  0  0  0
   -3.2256    2.8890    0.0273 H   0  0  0  0  0  0  0  0  0  0  0  0
   -4.2566    2.0342   -1.2311 H   0  0  0  0  0  0  0  0  0  0  0  0
   -4.7774   -0.8009   -0.0113 H   0  0  0  0  0  0  0  0  0  0  0  0
   -2.5922   -2.3746   -0.0363 H   0  0  0  0  0  0  0  0  0  0  0  0
    0.5688    0.5462    1.4354 H   0  0  0  0  0  0  0  0  0  0  0  0
    1.0320   -1.2155    1.5324 H   0  0  0  0  0  0  0  0  0  0  0  0
  1  2  1  0
  2  3  1  0
  3  4  1  0
  4  5  1  0
  5  6  1  0
  6  7  1  6
  6  8  1  0
  8  9  2  0
  9 10  2  0
 10 11  1  0
 10 12  1  0
 12 13  1  0
  6 14  1  0
 14  3  1  0
 13  8  1  0
  1 15  1  0
  1 16  1  0
  1 17  1  0
  2 18  1  0
  3 19  1  6
  4 20  1  0
  4 21  1  0
  7 22  1  0
  7 23  1  0
  7 24  1  0
 11 25  1  0
 11 26  1  0
 11 27  1  0
 12 28  1  0
 13 29  1  0
 14 30  1  0
 14 31  1  0
M  CHG  1  10   1
M  END
$$$$

     RDKit          3D

 31 32  0  0  0  0  0  0  0  0999 V2000
   -4.0498    1.0884   -0.0227 C   0  0  0  0  0  0  0  0  0  0  0  0
   -2.6815    1.0919   -0.4277 N   0  0  0  0  0  0  0  0  0  0  0  0
   -2.0580   -0.1855   -0.5432 C   0  0  2  0  0  0  0  0  0  0  0  0
   -2.0224   -0.8773    0.7827 C   0  0  0  0  0  0  0  0  0  0  0  0
   -0.7762   -1.4254    0.9777 O   0  0  0  0  0  0  0  0  0  0  0  0
    0.0929   -0.9799    0.0118 C   0  0  2  0  0  0  0  0  0  0  0  0
    0.4066   -2.1991   -0.8657 C   0  0  0  0  0  0  0  0  0  0  0  0
    1.3309   -0.3659    0.5416 C   0  0  0  0  0  0  0  0  0  0  0  0
    1.7384    0.8745    0.3683 C   0  0  0  0  0  0  0  0  0  0  0  0
    3.0151    1.0089    0.4585 N   0  0  0  0  0  4  0  0  0  0  0  0
    3.8278    2.0536   -0.1693 C   0  0  0  0  0  0  0  0  0  0  0  0
    3.4271   -0.0465    1.2747 N   0  0  0  0  0  0  0  0  0  0  0  0
    2.3480   -0.9546    1.3444 N   0  0  0  0  0  0  0  0  0  0  0  0
   -0.6076    0.0099   -0.8597 C   0  0  0  0  0  0  0  0  0  0  0  0
   -4.7539    1.3836   -0.8319 H   0  0  0  0  0  0  0  0  0  0  0  0
   -4.3726    0.1138    0.3760 H   0  0  0  0  0  0  0  0  0  0  0  0
   -4.1869    1.8503    0.7945 H   0  0  0  0  0  0  0  0  0  0  0  0
   -2.4390    1.7906   -1.1353 H   0  0  0  0  0  0  0  0  0  0  0  0
   -2.5108   -0.8371   -1.3140 H   0  0  0  0  0  0  0  0  0  0  0  0
   -2.2896   -0.1979    1.6035 H   0  0  0  0  0  0  0  0  0  0  0  0
   -2.7837   -1.6920    0.7628 H   0  0  0  0  0  0  0  0  0  0  0  0
    0.3547   -3.1287   -0.2474 H   0  0  0  0  0  0  0  0  0  0  0  0
   -0.3657   -2.2675   -1.6405 H   0  0  0  0  0  0  0  0  0  0  0  0
    1.3904   -2.0154   -1.3069 H   0  0  0  0  0  0  0  0  0  0  0  0
    3.8730    1.9318   -1.2773 H   0  0  0  0  0  0  0  0  0  0  0  0
    3.3251    3.0069    0.0413 H   0  0  0  0  0  0  0  0  0  0  0  0
    4.8098    2.0347    0.3008 H   0  0  0  0  0  0  0  0  0  0  0  0
    4.3484   -0.1350    1.7351 H   0  0  0  0  0  0  0  0  0  0  0  0
    2.2832   -1.8494    1.8534 H   0  0  0  0  0  0  0  0  0  0  0  0
   -0.2638    1.0574   -0.6394 H   0  0  0  0  0  0  0  0  0  0  0  0
   -0.4097   -0.1390   -1.9459 H   0  0  0  0  0  0  0  0  0  0  0  0
  1  2  1  0
  2  3  1  0
  3  4  1  0
  4  5  1  0
  5  6  1  0
  6  7  1  6
  6  8  1  0
  8  9  2  0
  9 10  2  0
 10 11  1  0
 10 12  1  0
 12 13  1  0
  6 14  1  0
 14  3  1  0
 13  8  1  0
  1 15  1  0
  1 16  1  0
  1 17  1  0
  2 18  1  0
  3 19  1  6
  4 20  1  0
  4 21  1  0
  7 22  1  0
  7 23  1  0
  7 24  1  0
 11 25  1  0
 11 26  1  0
 11 27  1  0
 12 28  1  0
 13 29  1  0
 14 30  1  0
 14 31  1  0
M  CHG  1  10   1
M  END
$$$$

     RDKit          3D

 31 32  0  0  0  0  0  0  0  0999 V2000
   -4.1186   -0.4059   -1.1890 C   0  0  0  0  0  0  0  0  0  0  0  0
   -2.7564   -0.8976   -0.9782 N   0  0  0  0  0  0  0  0  0  0  0  0
   -2.1454   -0.2650    0.1648 C   0  0  2  0  0  0  0  0  0  0  0  0
   -1.9753    1.2314   -0.0126 C   0  0  0  0  0  0  0  0  0  0  0  0
   -0.6204    1.3855   -0.4060 O   0  0  0  0  0  0  0  0  0  0  0  0
    0.0141    0.5783    0.4924 C   0  0  2  0  0  0  0  0  0  0  0  0
   -0.1440    1.1121    1.8970 C   0  0  0  0  0  0  0  0  0  0  0  0
    1.4291    0.3063    0.2645 C   0  0  0  0  0  0  0  0  0  0  0  0
    2.2897    0.6157   -0.6492 C   0  0  0  0  0  0  0  0  0  0  0  0
    3.3328   -0.1516   -0.6783 N   0  0  0  0  0  4  0  0  0  0  0  0
    4.2916   -0.3877   -1.7191 C   0  0  0  0  0  0  0  0  0  0  0  0
    3.3907   -0.7731    0.5689 N   0  0  0  0  0  0  0  0  0  0  0  0
    2.1781   -0.4988    1.2036 N   0  0  0  0  0  0  0  0  0  0  0  0
   -0.7299   -0.7364    0.2873 C   0  0  0  0  0  0  0  0  0  0  0  0
   -4.5027   -0.0967   -0.1808 H   0  0  0  0  0  0  0  0  0  0  0  0
   -4.0366    0.5156   -1.7892 H   0  0  0  0  0  0  0  0  0  0  0  0
   -4.7553   -1.1885   -1.6547 H   0  0  0  0  0  0  0  0  0  0  0  0
   -2.1726   -0.7351   -1.8431 H   0  0  0  0  0  0  0  0  0  0  0  0
   -2.7024   -0.5084    1.0883 H   0  0  0  0  0  0  0  0  0  0  0  0
   -2.1345    1.7640    0.9441 H   0  0  0  0  0  0  0  0  0  0  0  0
   -2.6624    1.5972   -0.7875 H   0  0  0  0  0  0  0  0  0  0  0  0
   -0.2293    2.2129    1.8472 H   0  0  0  0  0  0  0  0  0  0  0  0
   -0.9829    0.6109    2.4123 H   0  0  0  0  0  0  0  0  0  0  0  0
    0.7725    0.8920    2.4985 H   0  0  0  0  0  0  0  0  0  0  0  0
    5.3065   -0.1331   -1.2868 H   0  0  0  0  0  0  0  0  0  0  0  0
    4.3734   -1.4716   -1.9514 H   0  0  0  0  0  0  0  0  0  0  0  0
    4.1482    0.1858   -2.6362 H   0  0  0  0  0  0  0  0  0  0  0  0
    4.1651   -1.3372    0.9770 H   0  0  0  0  0  0  0  0  0  0  0  0
    1.8837   -0.8115    2.1610 H   0  0  0  0  0  0  0  0  0  0  0  0
   -0.5600   -1.4322    1.1131 H   0  0  0  0  0  0  0  0  0  0  0  0
   -0.3470   -1.1771   -0.6496 H   0  0  0  0  0  0  0  0  0  0  0  0
  1  2  1  0
  2  3  1  0
  3  4  1  0
  4  5  1  0
  5  6  1  0
  6  7  1  1
  6  8  1  0
  8  9  2  0
  9 10  2  0
 10 11  1  0
 10 12  1  0
 12 13  1  0
  6 14  1  0
 14  3  1  0
 13  8  1  0
  1 15  1  0
  1 16  1  0
  1 17  1  0
  2 18  1  0
  3 19  1  1
  4 20  1  0
  4 21  1  0
  7 22  1  0
  7 23  1  0
  7 24  1  0
 11 25  1  0
 11 26  1  0
 11 27  1  0
 12 28  1  0
 13 29  1  0
 14 30  1  0
 14 31  1  0
M  CHG  1  10   1
M  END
$$$$

     RDKit          3D

 31 32  0  0  0  0  0  0  0  0999 V2000
    3.9046    1.6307    0.1151 C   0  0  0  0  0  0  0  0  0  0  0  0
    2.7857    1.1763    0.8975 N   0  0  0  0  0  0  0  0  0  0  0  0
    2.0750    0.1701    0.2063 C   0  0  2  0  0  0  0  0  0  0  0  0
    1.4283    0.5716   -1.0946 C   0  0  0  0  0  0  0  0  0  0  0  0
    0.6635   -0.5627   -1.3711 O   0  0  0  0  0  0  0  0  0  0  0  0
    0.1120   -0.9947   -0.1751 C   0  0  2  0  0  0  0  0  0  0  0  0
    0.4231   -2.4833    0.0435 C   0  0  0  0  0  0  0  0  0  0  0  0
   -1.3495   -0.8261   -0.1345 C   0  0  0  0  0  0  0  0  0  0  0  0
   -2.0210   -0.1054    0.7176 C   0  0  0  0  0  0  0  0  0  0  0  0
   -3.1837    0.2593    0.2830 N   0  0  0  0  0  4  0  0  0  0  0  0
   -3.9321    1.4068    0.7505 C   0  0  0  0  0  0  0  0  0  0  0  0
   -3.5379   -0.6679   -0.7037 N   0  0  0  0  0  0  0  0  0  0  0  0
   -2.3409   -1.3813   -0.9813 N   0  0  0  0  0  0  0  0  0  0  0  0
    0.8044   -0.2656    0.9547 C   0  0  0  0  0  0  0  0  0  0  0  0
    4.1877    2.6813    0.3424 H   0  0  0  0  0  0  0  0  0  0  0  0
    4.7759    0.9497    0.3129 H   0  0  0  0  0  0  0  0  0  0  0  0
    3.6651    1.5377   -0.9563 H   0  0  0  0  0  0  0  0  0  0  0  0
    2.2360    1.9650    1.2434 H   0  0  0  0  0  0  0  0  0  0  0  0
    2.6748   -0.7460    0.0065 H   0  0  0  0  0  0  0  0  0  0  0  0
    2.1041    0.7845   -1.9165 H   0  0  0  0  0  0  0  0  0  0  0  0
    0.6959    1.3914   -0.8878 H   0  0  0  0  0  0  0  0  0  0  0  0
   -0.3278   -2.8415    0.7784 H   0  0  0  0  0  0  0  0  0  0  0  0
    1.4196   -2.5788    0.5437 H   0  0  0  0  0  0  0  0  0  0  0  0
    0.4393   -3.0428   -0.8934 H   0  0  0  0  0  0  0  0  0  0  0  0
   -5.0174    1.1747    0.7770 H   0  0  0  0  0  0  0  0  0  0  0  0
   -3.7462    2.2894    0.0715 H   0  0  0  0  0  0  0  0  0  0  0  0
   -3.5333    1.6875    1.7413 H   0  0  0  0  0  0  0  0  0  0  0  0
   -4.4799   -0.7897   -1.1273 H   0  0  0  0  0  0  0  0  0  0  0  0
   -2.2196   -2.1557   -1.6684 H   0  0  0  0  0  0  0  0  0  0  0  0
    0.2638    0.6674    1.2207 H   0  0  0  0  0  0  0  0  0  0  0  0
    1.0304   -0.9019    1.8092 H   0  0  0  0  0  0  0  0  0  0  0  0
  1  2  1  0
  2  3  1  0
  3  4  1  0
  4  5  1  0
  5  6  1  0
  6  7  1  1
  6  8  1  0
  8  9  2  0
  9 10  2  0
 10 11  1  0
 10 12  1  0
 12 13  1  0
  6 14  1  0
 14  3  1  0
 13  8  1  0
  1 15  1  0
  1 16  1  0
  1 17  1  0
  2 18  1  0
  3 19  1  6
  4 20  1  0
  4 21  1  0
  7 22  1  0
  7 23  1  0
  7 24  1  0
 11 25  1  0
 11 26  1  0
 11 27  1  0
 12 28  1  0
 13 29  1  0
 14 30  1  0
 14 31  1  0
M  CHG  1  10   1
M  END
$$$$
