
     RDKit          3D

 31 32  0  0  0  0  0  0  0  0999 V2000
   -1.0888   -0.7844    1.4658 C   0  0  0  0  0  0  0  0  0  0  0  0
   -0.8410   -0.3459    0.0316 C   0  0  1  0  0  0  0  0  0  0  0  0
   -2.0812   -0.4987   -0.8101 C   0  0  1  0  0  0  0  0  0  0  0  0
   -3.2109   -0.5401    0.0835 N   0  0  0  0  0  0  0  0  0  0  0  0
   -2.1868    0.8407   -1.5152 C   0  0  0  0  0  0  0  0  0  0  0  0
   -1.6189    1.7850   -0.4455 C   0  0  0  0  0  0  0  0  0  0  0  0
   -0.4677    0.9756   -0.0884 N   0  0  0  0  0  0  0  0  0  0  0  0
    0.7710    1.4795   -0.4893 C   0  0  0  0  0  0  0  0  0  0  0  0
    1.9468    0.8762    0.0614 C   0  0  0  0  0  0  0  0  0  0  0  0
    2.0702   -0.6575   -0.2410 N   0  0  0  0  0  0  0  0  0  0  0  0
    2.6529   -1.3776    0.1206 C   0  0  0  0  0  0  0  0  0  0  0  0
    2.9779   -1.7710    0.3134 N   0  0  0  0  0  4  0  0  0  0  0  0
    3.5947   -2.4893    0.6714 N   0  0  0  0  0  0  0  0  0  0  0  0
    3.7723   -0.5388    1.1117 N   0  0  0  0  0  0  0  0  0  0  0  0
   -1.5108    0.0112    2.0954 H   0  0  0  0  0  0  0  0  0  0  0  0
   -1.6854   -1.7119    1.4663 H   0  0  0  0  0  0  0  0  0  0  0  0
   -0.0798   -1.1132    1.8597 H   0  0  0  0  0  0  0  0  0  0  0  0
   -0.1412   -1.1232   -0.3825 H   0  0  0  0  0  0  0  0  0  0  0  0
   -2.0636   -1.3446   -1.5151 H   0  0  0  0  0  0  0  0  0  0  0  0
   -3.4227   -1.3895    0.5697 H   0  0  0  0  0  0  0  0  0  0  0  0
   -3.9955    0.0697   -0.2228 H   0  0  0  0  0  0  0  0  0  0  0  0
   -1.5383    0.8821   -2.4030 H   0  0  0  0  0  0  0  0  0  0  0  0
   -3.2224    1.0898   -1.7739 H   0  0  0  0  0  0  0  0  0  0  0  0
   -2.2821    1.8264    0.3970 H   0  0  0  0  0  0  0  0  0  0  0  0
   -1.2670    2.6696   -0.9247 H   0  0  0  0  0  0  0  0  0  0  0  0
    0.7691    2.5835   -0.1606 H   0  0  0  0  0  0  0  0  0  0  0  0
    0.7282    1.5372   -1.6351 H   0  0  0  0  0  0  0  0  0  0  0  0
    2.9246    1.2832   -0.2469 H   0  0  0  0  0  0  0  0  0  0  0  0
    1.8952    0.8774    1.1786 H   0  0  0  0  0  0  0  0  0  0  0  0
    4.4954   -2.5957    1.3123 H   0  0  0  0  0  0  0  0  0  0  0  0
    4.1056   -0.5058    0.1153 H   0  0  0  0  0  0  0  0  0  0  0  0
  1  2  1  0
  2  3  1  0
  3  4  1  0
  3  5  1  0
  5  6  1  0
  6  7  1  0
  7  8  1  0
  8  9  1  0
  9 10  1  0
 10 11  1  0
 11 12  3  0
 12 13  1  0
 13 14  1  0
  7  2  1  0
 14 10  1  0
  1 15  1  0
  1 16  1  0
  1 17  1  0
  2 18  1  6
  3 19  1  6
  4 20  1  0
  4 21  1  0
  5 22  1  0
  5 23  1  0
  6 24  1  0
  6 25  1  0
  8 26  1  0
  8 27  1  0
  9 28  1  0
  9 29  1  0
 13 30  1  0
 14 31  1  0
M  CHG  1  12   1
M  END
$$$$

     RDKit          3D

 31 32  0  0  0  0  0  0  0  0999 V2000
   -1.8729   -2.0644   -0.5511 C   0  0  0  0  0  0  0  0  0  0  0  0
   -1.6076   -0.6936   -1.0356 C   0  0  1  0  0  0  0  0  0  0  0  0
   -2.6116    0.3544   -0.5065 C   0  0  1  0  0  0  0  0  0  0  0  0
   -2.8169    0.2566    0.9174 N   0  0  0  0  0  0  0  0  0  0  0  0
   -1.8284    1.5878   -0.9092 C   0  0  0  0  0  0  0  0  0  0  0  0
   -0.4892    1.2070   -0.2428 C   0  0  0  0  0  0  0  0  0  0  0  0
   -0.2432   -0.1478   -0.7660 N   0  0  0  0  0  0  0  0  0  0  0  0
    0.3725   -0.9552    0.3310 C   0  0  0  0  0  0  0  0  0  0  0  0
    1.6043   -0.2787    0.7723 C   0  0  0  0  0  0  0  0  0  0  0  0
    2.5887   -0.2936   -0.3755 N   0  0  0  0  0  0  0  0  0  0  0  0
    3.4504    0.1887   -0.5073 C   0  0  0  0  0  0  0  0  0  0  0  0
    3.9467    0.4600   -0.5747 N   0  0  0  0  0  4  0  0  0  0  0  0
    4.8657    0.9824   -0.6998 N   0  0  0  0  0  0  0  0  0  0  0  0
    3.7649    0.8380    1.0112 N   0  0  0  0  0  0  0  0  0  0  0  0
   -1.4152   -2.4116    0.3713 H   0  0  0  0  0  0  0  0  0  0  0  0
   -1.7812   -2.7756   -1.4215 H   0  0  0  0  0  0  0  0  0  0  0  0
   -3.0071   -2.0824   -0.3593 H   0  0  0  0  0  0  0  0  0  0  0  0
   -1.7363   -0.6537   -2.1471 H   0  0  0  0  0  0  0  0  0  0  0  0
   -3.5860    0.3053   -1.0367 H   0  0  0  0  0  0  0  0  0  0  0  0
   -2.8440   -0.7800    1.1452 H   0  0  0  0  0  0  0  0  0  0  0  0
   -3.7991    0.6300    1.1267 H   0  0  0  0  0  0  0  0  0  0  0  0
   -1.7257    1.6299   -1.9815 H   0  0  0  0  0  0  0  0  0  0  0  0
   -2.2412    2.4882   -0.3794 H   0  0  0  0  0  0  0  0  0  0  0  0
   -0.5577    1.1775    0.8495 H   0  0  0  0  0  0  0  0  0  0  0  0
    0.2470    1.9192   -0.6808 H   0  0  0  0  0  0  0  0  0  0  0  0
   -0.3257   -0.9932    1.1666 H   0  0  0  0  0  0  0  0  0  0  0  0
    0.6663   -1.9733   -0.0670 H   0  0  0  0  0  0  0  0  0  0  0  0
    1.3724    0.8802    0.7668 H   0  0  0  0  0  0  0  0  0  0  0  0
    1.9036   -0.4409    1.7537 H   0  0  0  0  0  0  0  0  0  0  0  0
    5.4262    1.6965   -0.0093 H   0  0  0  0  0  0  0  0  0  0  0  0
    4.2802   -0.0578    1.0097 H   0  0  0  0  0  0  0  0  0  0  0  0
  1  2  1  0
  2  3  1  0
  3  4  1  0
  3  5  1  0
  5  6  1  0
  6  7  1  0
  7  8  1  0
  8  9  1  0
  9 10  1  0
 10 11  1  0
 11 12  3  0
 12 13  1  0
 13 14  1  0
  7  2  1  0
 14 10  1  0
  1 15  1  0
  1 16  1  0
  1 17  1  0
  2 18  1  6
  3 19  1  6
  4 20  1  0
  4 21  1  0
  5 22  1  0
  5 23  1  0
  6 24  1  0
  6 25  1  0
  8 26  1  0
  8 27  1  0
  9 28  1  0
  9 29  1  0
 13 30  1  0
 14 31  1  0
M  CHG  1  12   1
M  END
$$$$

     RDKit          3D

 31 32  0  0  0  0  0  0  0  0999 V2000
   -0.2682   -0.5301    2.1754 C   0  0  0  0  0  0  0  0  0  0  0  0
   -0.8805   -1.2650    1.0225 C   0  0  1  0  0  0  0  0  0  0  0  0
   -2.2894   -0.7988    0.7215 C   0  0  1  0  0  0  0  0  0  0  0  0
   -2.3009    0.6421    0.6063 N   0  0  0  0  0  0  0  0  0  0  0  0
   -2.4913   -1.3566   -0.6669 C   0  0  0  0  0  0  0  0  0  0  0  0
   -1.1049   -1.5756   -1.2348 C   0  0  0  0  0  0  0  0  0  0  0  0
   -0.2757   -1.0372   -0.2296 N   0  0  0  0  0  0  0  0  0  0  0  0
    0.4316    0.1397   -0.4726 C   0  0  0  0  0  0  0  0  0  0  0  0
    1.4922   -0.1014   -1.4878 C   0  0  0  0  0  0  0  0  0  0  0  0
    2.2406    1.2468   -1.7502 N   0  0  0  0  0  0  0  0  0  0  0  0
    2.7952    1.8865   -1.4129 C   0  0  0  0  0  0  0  0  0  0  0  0
    3.1922    2.3393   -1.1612 N   0  0  0  0  0  4  0  0  0  0  0  0
    3.7293    2.9476   -0.8055 N   0  0  0  0  0  0  0  0  0  0  0  0
    3.0189    1.2662    0.1469 N   0  0  0  0  0  0  0  0  0  0  0  0
   -0.7895   -0.8744    3.0995 H   0  0  0  0  0  0  0  0  0  0  0  0
   -0.4843    0.5435    2.0449 H   0  0  0  0  0  0  0  0  0  0  0  0
    0.7964   -0.7022    2.3010 H   0  0  0  0  0  0  0  0  0  0  0  0
   -0.9424   -2.3578    1.2091 H   0  0  0  0  0  0  0  0  0  0  0  0
   -3.0290   -1.1748    1.4472 H   0  0  0  0  0  0  0  0  0  0  0  0
   -2.4775    1.1238    1.4992 H   0  0  0  0  0  0  0  0  0  0  0  0
   -2.8307    1.0036   -0.1973 H   0  0  0  0  0  0  0  0  0  0  0  0
   -3.0284   -2.3376   -0.5224 H   0  0  0  0  0  0  0  0  0  0  0  0
   -3.0972   -0.6702   -1.3040 H   0  0  0  0  0  0  0  0  0  0  0  0
   -0.9285   -2.6927   -1.2489 H   0  0  0  0  0  0  0  0  0  0  0  0
   -1.0026   -1.1214   -2.2213 H   0  0  0  0  0  0  0  0  0  0  0  0
    0.8591    0.5887    0.4216 H   0  0  0  0  0  0  0  0  0  0  0  0
   -0.2854    0.9042   -0.8932 H   0  0  0  0  0  0  0  0  0  0  0  0
    1.1563   -0.3368   -2.4933 H   0  0  0  0  0  0  0  0  0  0  0  0
    2.2821   -0.7630   -1.1548 H   0  0  0  0  0  0  0  0  0  0  0  0
    4.2825    3.1384    0.2504 H   0  0  0  0  0  0  0  0  0  0  0  0
    2.2300    1.9248    0.2386 H   0  0  0  0  0  0  0  0  0  0  0  0
  1  2  1  0
  2  3  1  0
  3  4  1  0
  3  5  1  0
  5  6  1  0
  6  7  1  0
  7  8  1  0
  8  9  1  0
  9 10  1  0
 10 11  1  0
 11 12  3  0
 12 13  1  0
 13 14  1  0
  7  2  1  0
 14 10  1  0
  1 15  1  0
  1 16  1  0
  1 17  1  0
  2 18  1  1
  3 19  1  1
  4 20  1  0
  4 21  1  0
  5 22  1  0
  5 23  1  0
  6 24  1  0
  6 25  1  0
  8 26  1  0
  8 27  1  0
  9 28  1  0
  9 29  1  0
 13 30  1  0
 14 31  1  0
M  CHG  1  12   1
M  END
$$$$

     RDKit          3D

 31 32  0  0  0  0  0  0  0  0999 V2000
   -2.3147   -1.7269   -1.0358 C   0  0  0  0  0  0  0  0  0  0  0  0
   -1.4421   -0.4765   -0.9977 C   0  0  1  0  0  0  0  0  0  0  0  0
   -2.3211    0.7438   -0.8633 C   0  0  1  0  0  0  0  0  0  0  0  0
   -3.6692    0.5329   -1.3467 N   0  0  0  0  0  0  0  0  0  0  0  0
   -2.3005    0.9770    0.6351 C   0  0  0  0  0  0  0  0  0  0  0  0
   -0.8633    0.6890    0.9121 C   0  0  0  0  0  0  0  0  0  0  0  0
   -0.6084   -0.5751    0.1972 N   0  0  0  0  0  0  0  0  0  0  0  0
    0.7910   -0.5000   -0.3041 C   0  0  0  0  0  0  0  0  0  0  0  0
    1.7073   -0.4387    0.8840 C   0  0  0  0  0  0  0  0  0  0  0  0
    3.1203   -0.3139    0.1703 N   0  0  0  0  0  0  0  0  0  0  0  0
    3.9171   -0.0647    0.3108 C   0  0  0  0  0  0  0  0  0  0  0  0
    4.5705    0.1471    0.4361 N   0  0  0  0  0  4  0  0  0  0  0  0
    5.4094    0.4313    0.5945 N   0  0  0  0  0  0  0  0  0  0  0  0
    3.8421    0.6189    1.8851 N   0  0  0  0  0  0  0  0  0  0  0  0
   -3.3234   -1.4670   -1.4814 H   0  0  0  0  0  0  0  0  0  0  0  0
   -1.8622   -2.4408   -1.7346 H   0  0  0  0  0  0  0  0  0  0  0  0
   -2.4822   -2.1682   -0.0295 H   0  0  0  0  0  0  0  0  0  0  0  0
   -0.8565   -0.4088   -1.9432 H   0  0  0  0  0  0  0  0  0  0  0  0
   -1.8382    1.6096   -1.3694 H   0  0  0  0  0  0  0  0  0  0  0  0
   -3.9522    1.3932   -1.9194 H   0  0  0  0  0  0  0  0  0  0  0  0
   -4.3471    0.3471   -0.6035 H   0  0  0  0  0  0  0  0  0  0  0  0
   -2.8884    0.2018    1.1651 H   0  0  0  0  0  0  0  0  0  0  0  0
   -2.6281    2.0104    0.8718 H   0  0  0  0  0  0  0  0  0  0  0  0
   -0.5769    0.6486    1.9816 H   0  0  0  0  0  0  0  0  0  0  0  0
   -0.2486    1.4652    0.3815 H   0  0  0  0  0  0  0  0  0  0  0  0
    0.8205    0.4658   -0.8789 H   0  0  0  0  0  0  0  0  0  0  0  0
    0.9762   -1.3478   -0.9446 H   0  0  0  0  0  0  0  0  0  0  0  0
    1.7392   -1.3561    1.4561 H   0  0  0  0  0  0  0  0  0  0  0  0
    1.5375    0.4179    1.4970 H   0  0  0  0  0  0  0  0  0  0  0  0
    5.9947    0.9683    1.4808 H   0  0  0  0  0  0  0  0  0  0  0  0
    4.0972   -0.3835    2.0303 H   0  0  0  0  0  0  0  0  0  0  0  0
  1  2  1  0
  2  3  1  0
  3  4  1  0
  3  5  1  0
  5  6  1  0
  6  7  1  0
  7  8  1  0
  8  9  1  0
  9 10  1  0
 10 11  1  0
 11 12  3  0
 12 13  1  0
 13 14  1  0
  7  2  1  0
 14 10  1  0
  1 15  1  0
  1 16  1  0
  1 17  1  0
  2 18  1  6
  3 19  1  6
  4 20  1  0
  4 21  1  0
  5 22  1  0
  5 23  1  0
  6 24  1  0
  6 25  1  0
  8 26  1  0
  8 27  1  0
  9 28  1  0
  9 29  1  0
 13 30  1  0
 14 31  1  0
M  CHG  1  12   1
M  END
$$$$

     RDKit          3D

 31 32  0  0  0  0  0  0  0  0999 V2000
   -1.4103   -0.4092    1.9653 C   0  0  0  0  0  0  0  0  0  0  0  0
   -1.5543   -0.1823    0.5360 C   0  0  1  0  0  0  0  0  0  0  0  0
   -2.8395    0.5841    0.1225 C   0  0  1  0  0  0  0  0  0  0  0  0
   -2.8861    1.7661    0.9652 N   0  0  0  0  0  0  0  0  0  0  0  0
   -2.5149    0.9718   -1.3036 C   0  0  0  0  0  0  0  0  0  0  0  0
   -1.1450    0.2904   -1.5926 C   0  0  0  0  0  0  0  0  0  0  0  0
   -0.6031    0.5580   -0.2006 N   0  0  0  0  0  0  0  0  0  0  0  0
    0.7338    0.5869   -0.1555 C   0  0  0  0  0  0  0  0  0  0  0  0
    1.5636   -0.6054    0.0785 C   0  0  0  0  0  0  0  0  0  0  0  0
    2.9369   -0.1250   -0.2433 N   0  0  0  0  0  0  0  0  0  0  0  0
    3.9287   -0.4842   -0.6118 C   0  0  0  0  0  0  0  0  0  0  0  0
    4.1509   -0.5647   -0.6959 N   0  0  0  0  0  4  0  0  0  0  0  0
    5.1674   -0.9229   -1.0973 N   0  0  0  0  0  0  0  0  0  0  0  0
    3.5364   -2.1270   -0.5581 N   0  0  0  0  0  0  0  0  0  0  0  0
   -0.8334    0.4373    2.4608 H   0  0  0  0  0  0  0  0  0  0  0  0
   -0.9549   -1.4051    2.1616 H   0  0  0  0  0  0  0  0  0  0  0  0
   -2.4354   -0.4494    2.4325 H   0  0  0  0  0  0  0  0  0  0  0  0
   -1.6865   -1.1515   -0.0595 H   0  0  0  0  0  0  0  0  0  0  0  0
   -3.7366   -0.0597    0.1736 H   0  0  0  0  0  0  0  0  0  0  0  0
   -2.9861    2.6536    0.4498 H   0  0  0  0  0  0  0  0  0  0  0  0
   -3.5312    1.6725    1.7852 H   0  0  0  0  0  0  0  0  0  0  0  0
   -2.4262    2.0394   -1.4512 H   0  0  0  0  0  0  0  0  0  0  0  0
   -3.2256    0.5344   -2.0398 H   0  0  0  0  0  0  0  0  0  0  0  0
   -1.2122   -0.7841   -1.6748 H   0  0  0  0  0  0  0  0  0  0  0  0
   -0.7023    0.8173   -2.3664 H   0  0  0  0  0  0  0  0  0  0  0  0
    1.0573    0.9594   -1.2649 H   0  0  0  0  0  0  0  0  0  0  0  0
    1.1796    1.4960    0.3879 H   0  0  0  0  0  0  0  0  0  0  0  0
    1.3219   -1.5102   -0.4176 H   0  0  0  0  0  0  0  0  0  0  0  0
    1.5567   -0.7645    1.2249 H   0  0  0  0  0  0  0  0  0  0  0  0
    5.5978   -1.9074   -1.3331 H   0  0  0  0  0  0  0  0  0  0  0  0
    3.9528   -1.9145    0.3260 H   0  0  0  0  0  0  0  0  0  0  0  0
  1  2  1  0
  2  3  1  0
  3  4  1  0
  3  5  1  0
  5  6  1  0
  6  7  1  0
  7  8  1  0
  8  9  1  0
  9 10  1  0
 10 11  1  0
 11 12  3  0
 12 13  1  0
 13 14  1  0
  7  2  1  0
 14 10  1  0
  1 15  1  0
  1 16  1  0
  1 17  1  0
  2 18  1  6
  3 19  1  6
  4 20  1  0
  4 21  1  0
  5 22  1  0
  5 23  1  0
  6 24  1  0
  6 25  1  0
  8 26  1  0
  8 27  1  0
  9 28  1  0
  9 29  1  0
 13 30  1  0
 14 31  1  0
M  CHG  1  12   1
M  END
$$$$

     RDKit          3D

 31 32  0  0  0  0  0  0  0  0999 V2000
   -2.3551   -1.4345   -0.3494 C   0  0  0  0  0  0  0  0  0  0  0  0
   -1.3530   -0.2870   -0.5156 C   0  0  1  0  0  0  0  0  0  0  0  0
   -1.9682    0.9251    0.0607 C   0  0  1  0  0  0  0  0  0  0  0  0
   -3.3800    0.9499   -0.3552 N   0  0  0  0  0  0  0  0  0  0  0  0
   -1.8071    0.7456    1.5585 C   0  0  0  0  0  0  0  0  0  0  0  0
   -0.7931   -0.3736    1.7060 C   0  0  0  0  0  0  0  0  0  0  0  0
   -0.2216   -0.6184    0.3713 N   0  0  0  0  0  0  0  0  0  0  0  0
    0.8425    0.3826    0.0544 C   0  0  0  0  0  0  0  0  0  0  0  0
    1.5355    0.1072   -1.1400 C   0  0  0  0  0  0  0  0  0  0  0  0
    2.8374   -1.0500   -0.6551 N   0  0  0  0  0  0  0  0  0  0  0  0
    3.1439   -1.0055   -0.4892 C   0  0  0  0  0  0  0  0  0  0  0  0
    3.8449   -0.9022   -0.0998 N   0  0  0  0  0  4  0  0  0  0  0  0
    4.8272   -0.7385    0.4547 N   0  0  0  0  0  0  0  0  0  0  0  0
    3.5340    0.6010    0.4104 N   0  0  0  0  0  0  0  0  0  0  0  0
   -3.0520   -1.1777    0.5122 H   0  0  0  0  0  0  0  0  0  0  0  0
   -1.7870   -2.3256   -0.0455 H   0  0  0  0  0  0  0  0  0  0  0  0
   -2.9582   -1.5006   -1.2714 H   0  0  0  0  0  0  0  0  0  0  0  0
   -1.0201   -0.1879   -1.5329 H   0  0  0  0  0  0  0  0  0  0  0  0
   -1.5549    1.8791   -0.2838 H   0  0  0  0  0  0  0  0  0  0  0  0
   -3.3783    1.1228   -1.3897 H   0  0  0  0  0  0  0  0  0  0  0  0
   -3.8936    1.6815    0.1579 H   0  0  0  0  0  0  0  0  0  0  0  0
   -2.7802    0.4663    2.0225 H   0  0  0  0  0  0  0  0  0  0  0  0
   -1.4302    1.6530    2.0514 H   0  0  0  0  0  0  0  0  0  0  0  0
   -0.0547   -0.1759    2.4589 H   0  0  0  0  0  0  0  0  0  0  0  0
   -1.3390   -1.3313    1.9959 H   0  0  0  0  0  0  0  0  0  0  0  0
    1.4730    0.4976    0.9578 H   0  0  0  0  0  0  0  0  0  0  0  0
    0.3373    1.3879   -0.0589 H   0  0  0  0  0  0  0  0  0  0  0  0
    2.2254    0.7824   -1.6149 H   0  0  0  0  0  0  0  0  0  0  0  0
    1.1446   -0.6716   -1.8229 H   0  0  0  0  0  0  0  0  0  0  0  0
    5.4536   -0.1688    1.0183 H   0  0  0  0  0  0  0  0  0  0  0  0
    3.9269    0.7673   -0.5007 H   0  0  0  0  0  0  0  0  0  0  0  0
  1  2  1  0
  2  3  1  0
  3  4  1  0
  3  5  1  0
  5  6  1  0
  6  7  1  0
  7  8  1  0
  8  9  1  0
  9 10  1  0
 10 11  1  0
 11 12  3  0
 12 13  1  0
 13 14  1  0
  7  2  1  0
 14 10  1  0
  1 15  1  0
  1 16  1  0
  1 17  1  0
  2 18  1  6
  3 19  1  6
  4 20  1  0
  4 21  1  0
  5 22  1  0
  5 23  1  0
  6 24  1  0
  6 25  1  0
  8 26  1  0
  8 27  1  0
  9 28  1  0
  9 29  1  0
 13 30  1  0
 14 31  1  0
M  CHG  1  12   1
M  END
$$$$

     RDKit          3D

 31 32  0  0  0  0  0  0  0  0999 V2000
   -1.8174    1.1617   -1.7505 C   0  0  0  0  0  0  0  0  0  0  0  0
   -1.1092    1.0364   -0.4481 C   0  0  1  0  0  0  0  0  0  0  0  0
   -2.0606    0.4739    0.6263 C   0  0  1  0  0  0  0  0  0  0  0  0
   -3.3595    0.6880    0.1679 N   0  0  0  0  0  0  0  0  0  0  0  0
   -1.7539   -1.0175    0.5924 C   0  0  0  0  0  0  0  0  0  0  0  0
   -0.7820   -1.1330   -0.5942 C   0  0  0  0  0  0  0  0  0  0  0  0
    0.0054    0.1361   -0.4033 N   0  0  0  0  0  0  0  0  0  0  0  0
    0.5232    0.1358    0.9379 C   0  0  0  0  0  0  0  0  0  0  0  0
    1.5439   -0.9190    1.2383 C   0  0  0  0  0  0  0  0  0  0  0  0
    2.8640   -0.7317    0.8948 N   0  0  0  0  0  0  0  0  0  0  0  0
    3.7499   -0.5620    0.2842 C   0  0  0  0  0  0  0  0  0  0  0  0
    4.3043   -0.4555   -0.0960 N   0  0  0  0  0  4  0  0  0  0  0  0
    4.9146   -0.3405   -0.5232 N   0  0  0  0  0  0  0  0  0  0  0  0
    2.8212   -0.2932   -1.0112 N   0  0  0  0  0  0  0  0  0  0  0  0
   -2.4311    0.2774   -2.0830 H   0  0  0  0  0  0  0  0  0  0  0  0
   -1.0813    1.3605   -2.5929 H   0  0  0  0  0  0  0  0  0  0  0  0
   -2.4941    2.0299   -1.7214 H   0  0  0  0  0  0  0  0  0  0  0  0
   -0.7352    2.0346   -0.1707 H   0  0  0  0  0  0  0  0  0  0  0  0
   -1.9205    0.9515    1.6004 H   0  0  0  0  0  0  0  0  0  0  0  0
   -3.9942    1.1591    0.8828 H   0  0  0  0  0  0  0  0  0  0  0  0
   -3.6349    0.7979   -0.7586 H   0  0  0  0  0  0  0  0  0  0  0  0
   -1.1888   -1.3568    1.5043 H   0  0  0  0  0  0  0  0  0  0  0  0
   -2.6147   -1.6826    0.3969 H   0  0  0  0  0  0  0  0  0  0  0  0
   -1.3284   -1.1153   -1.5264 H   0  0  0  0  0  0  0  0  0  0  0  0
   -0.1361   -1.9876   -0.4900 H   0  0  0  0  0  0  0  0  0  0  0  0
   -0.1925    0.2299    1.7432 H   0  0  0  0  0  0  0  0  0  0  0  0
    1.0076    1.2188    0.9865 H   0  0  0  0  0  0  0  0  0  0  0  0
    1.1929   -1.9376    1.3624 H   0  0  0  0  0  0  0  0  0  0  0  0
    1.7079   -0.6633    2.4763 H   0  0  0  0  0  0  0  0  0  0  0  0
    4.9298   -0.1550   -1.7878 H   0  0  0  0  0  0  0  0  0  0  0  0
    3.0697    0.6592   -0.6519 H   0  0  0  0  0  0  0  0  0  0  0  0
  1  2  1  0
  2  3  1  0
  3  4  1  0
  3  5  1  0
  5  6  1  0
  6  7  1  0
  7  8  1  0
  8  9  1  0
  9 10  1  0
 10 11  1  0
 11 12  3  0
 12 13  1  0
 13 14  1  0
  7  2  1  0
 14 10  1  0
  1 15  1  0
  1 16  1  0
  1 17  1  0
  2 18  1  1
  3 19  1  1
  4 20  1  0
  4 21  1  0
  5 22  1  0
  5 23  1  0
  6 24  1  0
  6 25  1  0
  8 26  1  0
  8 27  1  0
  9 28  1  0
  9 29  1  0
 13 30  1  0
 14 31  1  0
M  CHG  1  12   1
M  END
$$$$

     RDKit          3D

 31 32  0  0  0  0  0  0  0  0999 V2000
   -1.4084   -1.4778   -1.2107 C   0  0  0  0  0  0  0  0  0  0  0  0
   -1.4835   -0.0363   -0.6689 C   0  0  1  0  0  0  0  0  0  0  0  0
   -2.7890   -0.0863    0.2004 C   0  0  1  0  0  0  0  0  0  0  0  0
   -2.6783   -1.3351    0.9994 N   0  0  0  0  0  0  0  0  0  0  0  0
   -2.5118    1.0836    1.1104 C   0  0  0  0  0  0  0  0  0  0  0  0
   -1.0082    0.6249    1.5152 C   0  0  0  0  0  0  0  0  0  0  0  0
   -0.5306    0.2673    0.2383 N   0  0  0  0  0  0  0  0  0  0  0  0
    0.8142    0.5410   -0.0586 C   0  0  0  0  0  0  0  0  0  0  0  0
    1.4415    0.1385   -1.4361 C   0  0  0  0  0  0  0  0  0  0  0  0
    2.9353    0.0651   -1.2926 N   0  0  0  0  0  0  0  0  0  0  0  0
    3.6717    0.3938   -0.9320 C   0  0  0  0  0  0  0  0  0  0  0  0
    4.3630    0.6996   -0.6089 N   0  0  0  0  0  4  0  0  0  0  0  0
    5.2025    1.0752   -0.2057 N   0  0  0  0  0  0  0  0  0  0  0  0
    3.2824    1.5675    0.1971 N   0  0  0  0  0  0  0  0  0  0  0  0
   -0.5909   -2.0459   -0.7854 H   0  0  0  0  0  0  0  0  0  0  0  0
   -1.2405   -1.3341   -2.3339 H   0  0  0  0  0  0  0  0  0  0  0  0
   -2.3987   -1.9863   -1.1854 H   0  0  0  0  0  0  0  0  0  0  0  0
   -1.6364    0.7095   -1.4933 H   0  0  0  0  0  0  0  0  0  0  0  0
   -3.6221   -0.0738   -0.4259 H   0  0  0  0  0  0  0  0  0  0  0  0
   -3.3047   -2.0636    0.5319 H   0  0  0  0  0  0  0  0  0  0  0  0
   -3.0119   -1.1834    1.9960 H   0  0  0  0  0  0  0  0  0  0  0  0
   -3.1056    1.1192    2.0222 H   0  0  0  0  0  0  0  0  0  0  0  0
   -2.3255    2.0397    0.5934 H   0  0  0  0  0  0  0  0  0  0  0  0
   -0.5525    1.4363    2.0732 H   0  0  0  0  0  0  0  0  0  0  0  0
   -1.2761   -0.2789    2.1876 H   0  0  0  0  0  0  0  0  0  0  0  0
    0.9348    1.7810   -0.0392 H   0  0  0  0  0  0  0  0  0  0  0  0
    1.5237    0.2799    0.8483 H   0  0  0  0  0  0  0  0  0  0  0  0
    1.5401   -1.1631   -0.9130 H   0  0  0  0  0  0  0  0  0  0  0  0
    1.0476   -0.2981   -2.1977 H   0  0  0  0  0  0  0  0  0  0  0  0
    5.3442    1.8967    0.5687 H   0  0  0  0  0  0  0  0  0  0  0  0
    3.3735    0.7678    0.7054 H   0  0  0  0  0  0  0  0  0  0  0  0
  1  2  1  0
  2  3  1  0
  3  4  1  0
  3  5  1  0
  5  6  1  0
  6  7  1  0
  7  8  1  0
  8  9  1  0
  9 10  1  0
 10 11  1  0
 11 12  3  0
 12 13  1  0
 13 14  1  0
  7  2  1  0
 14 10  1  0
  1 15  1  0
  1 16  1  0
  1 17  1  0
  2 18  1  6
  3 19  1  6
  4 20  1  0
  4 21  1  0
  5 22  1  0
  5 23  1  0
  6 24  1  0
  6 25  1  0
  8 26  1  0
  8 27  1  0
  9 28  1  0
  9 29  1  0
 13 30  1  0
 14 31  1  0
M  CHG  1  12   1
M  END
$$$$
