
     RDKit          3D

 25 26  0  0  0  0  0  0  0  0999 V2000
    4.0983    1.2638   -0.0524 C   0  0  0  0  0  0  0  0  0  0  0  0
    3.5239   -0.0712    0.2198 C   0  0  0  0  0  0  0  0  0  0  0  0
    2.5296   -0.0027    1.2441 O   0  0  0  0  0  0  0  0  0  0  0  0
    1.3629   -0.3077    0.8235 N   0  0  0  0  0  0  0  0  0  0  0  0
    0.8738   -1.4248   -0.0661 C   0  0  0  0  0  0  0  0  0  0  0  0
    1.6557   -2.2281   -0.4646 O   0  0  0  0  0  0  0  0  0  0  0  0
   -0.5684   -1.2630   -0.3515 C   0  0  0  0  0  0  0  0  0  0  0  0
   -1.2556   -2.1522   -1.0987 C   0  0  0  0  0  0  0  0  0  0  0  0
   -2.4832   -2.1410   -0.9089 N   0  0  0  0  0  0  0  0  0  0  0  0
   -2.8063   -0.8868   -0.3168 N   0  0  0  0  0  0  0  0  0  0  0  0
   -3.8742    0.0207   -0.0238 C   0  0  0  0  0  0  0  0  0  0  0  0
   -3.2214    0.9560    0.9599 C   0  0  0  0  0  0  0  0  0  0  0  0
   -1.7792    0.9278    0.6780 N   0  0  0  0  0  0  0  0  0  0  0  0
   -1.5698   -0.3327    0.0198 C   0  0  0  0  0  3  0  0  0  0  0  0
    3.8701    1.5544   -1.1400 H   0  0  0  0  0  0  0  0  0  0  0  0
    3.6366    2.1087    0.4994 H   0  0  0  0  0  0  0  0  0  0  0  0
    5.1748    1.3516   -0.0371 H   0  0  0  0  0  0  0  0  0  0  0  0
    3.2649   -0.7365   -0.5596 H   0  0  0  0  0  0  0  0  0  0  0  0
    4.4215   -0.6201    0.7565 H   0  0  0  0  0  0  0  0  0  0  0  0
    0.5589    0.2800    1.0980 H   0  0  0  0  0  0  0  0  0  0  0  0
   -4.7943   -0.4436    0.3638 H   0  0  0  0  0  0  0  0  0  0  0  0
   -4.1437    0.6398   -0.9274 H   0  0  0  0  0  0  0  0  0  0  0  0
   -3.4652    0.5932    1.9994 H   0  0  0  0  0  0  0  0  0  0  0  0
   -3.6421    1.9978    0.7954 H   0  0  0  0  0  0  0  0  0  0  0  0
   -1.3677    0.9169    1.6768 H   0  0  0  0  0  0  0  0  0  0  0  0
  1  2  1  0
  2  3  1  0
  3  4  1  0
  4  5  1  0
  5  6  2  0
  5  7  1  0
  7  8  2  0
  8  9  2  0
  9 10  1  0
 10 11  1  0
 11 12  1  0
 12 13  1  0
 13 14  1  0
 14  7  1  0
 14 10  1  0
  1 15  1  0
  1 16  1  0
  1 17  1  0
  2 18  1  0
  2 19  1  0
  4 20  1  0
 11 21  1  0
 11 22  1  0
 12 23  1  0
 12 24  1  0
 13 25  1  0
M  CHG  1  14  -1
M  END
$$$$

     RDKit          3D

 25 26  0  0  0  0  0  0  0  0999 V2000
   -4.8300    0.3757   -0.0090 C   0  0  0  0  0  0  0  0  0  0  0  0
   -3.3745    0.1388    0.4312 C   0  0  0  0  0  0  0  0  0  0  0  0
   -2.5826    0.4329   -0.6639 O   0  0  0  0  0  0  0  0  0  0  0  0
   -1.2955    0.2754   -0.3771 N   0  0  0  0  0  0  0  0  0  0  0  0
   -0.7447   -0.9671   -0.0607 C   0  0  0  0  0  0  0  0  0  0  0  0
   -1.5107   -1.9801   -0.0399 O   0  0  0  0  0  0  0  0  0  0  0  0
    0.6513   -1.1644    0.2428 C   0  0  0  0  0  0  0  0  0  0  0  0
    1.2337   -2.3100    0.5598 C   0  0  0  0  0  0  0  0  0  0  0  0
    2.4919   -2.3250    0.2411 N   0  0  0  0  0  0  0  0  0  0  0  0
    2.9595   -1.0045    0.2786 N   0  0  0  0  0  0  0  0  0  0  0  0
    4.1100   -0.1240    0.3053 C   0  0  0  0  0  0  0  0  0  0  0  0
    3.4650    1.1409   -0.2705 C   0  0  0  0  0  0  0  0  0  0  0  0
    2.1480    1.1397    0.3269 N   0  0  0  0  0  0  0  0  0  0  0  0
    1.7508   -0.2083    0.2835 C   0  0  0  0  0  3  0  0  0  0  0  0
   -4.9894   -0.0404   -1.0191 H   0  0  0  0  0  0  0  0  0  0  0  0
   -5.0048    1.4651   -0.0655 H   0  0  0  0  0  0  0  0  0  0  0  0
   -5.4645   -0.1508    0.7067 H   0  0  0  0  0  0  0  0  0  0  0  0
   -3.3345   -0.9368    0.7385 H   0  0  0  0  0  0  0  0  0  0  0  0
   -3.2155    0.7786    1.3161 H   0  0  0  0  0  0  0  0  0  0  0  0
   -0.7163    1.1673   -0.4074 H   0  0  0  0  0  0  0  0  0  0  0  0
    4.4432   -0.0064    1.3328 H   0  0  0  0  0  0  0  0  0  0  0  0
    4.8873   -0.4987   -0.3932 H   0  0  0  0  0  0  0  0  0  0  0  0
    3.3428    0.9598   -1.3672 H   0  0  0  0  0  0  0  0  0  0  0  0
    4.0693    2.0229   -0.0525 H   0  0  0  0  0  0  0  0  0  0  0  0
    1.5104    1.8193   -0.0850 H   0  0  0  0  0  0  0  0  0  0  0  0
  1  2  1  0
  2  3  1  0
  3  4  1  0
  4  5  1  0
  5  6  2  0
  5  7  1  0
  7  8  2  0
  8  9  2  0
  9 10  1  0
 10 11  1  0
 11 12  1  0
 12 13  1  0
 13 14  1  0
 14  7  1  0
 14 10  1  0
  1 15  1  0
  1 16  1  0
  1 17  1  0
  2 18  1  0
  2 19  1  0
  4 20  1  0
 11 21  1  0
 11 22  1  0
 12 23  1  0
 12 24  1  0
 13 25  1  0
M  CHG  1  14  -1
M  END
$$$$

     RDKit          3D

 25 26  0  0  0  0  0  0  0  0999 V2000
    4.8057   -0.0603   -0.3297 C   0  0  0  0  0  0  0  0  0  0  0  0
    3.3697   -0.0537    0.1694 C   0  0  0  0  0  0  0  0  0  0  0  0
    2.5604    0.0716   -0.9435 O   0  0  0  0  0  0  0  0  0  0  0  0
    1.2766    0.0844   -0.5802 N   0  0  0  0  0  0  0  0  0  0  0  0
    0.6071    1.2871   -0.2443 C   0  0  0  0  0  0  0  0  0  0  0  0
    1.2579    2.3561   -0.2964 O   0  0  0  0  0  0  0  0  0  0  0  0
   -0.7913    1.3218    0.1535 C   0  0  0  0  0  0  0  0  0  0  0  0
   -1.5260    2.3498    0.4830 C   0  0  0  0  0  0  0  0  0  0  0  0
   -2.7973    2.1318    0.3785 N   0  0  0  0  0  0  0  0  0  0  0  0
   -3.0056    0.7543    0.4173 N   0  0  0  0  0  0  0  0  0  0  0  0
   -3.9876   -0.2993    0.5394 C   0  0  0  0  0  0  0  0  0  0  0  0
   -3.1982   -1.4986   -0.0045 C   0  0  0  0  0  0  0  0  0  0  0  0
   -1.8130   -1.2204    0.3040 N   0  0  0  0  0  0  0  0  0  0  0  0
   -1.7196    0.1716    0.2743 C   0  0  0  0  0  3  0  0  0  0  0  0
    4.8866    0.3905   -1.3393 H   0  0  0  0  0  0  0  0  0  0  0  0
    5.4085    0.5552    0.3530 H   0  0  0  0  0  0  0  0  0  0  0  0
    5.1465   -1.1054   -0.3909 H   0  0  0  0  0  0  0  0  0  0  0  0
    3.1165   -1.0112    0.6655 H   0  0  0  0  0  0  0  0  0  0  0  0
    3.2230    0.7559    0.9155 H   0  0  0  0  0  0  0  0  0  0  0  0
    0.7653   -0.8247   -0.5477 H   0  0  0  0  0  0  0  0  0  0  0  0
   -4.8699   -0.1414   -0.1071 H   0  0  0  0  0  0  0  0  0  0  0  0
   -4.2466   -0.4095    1.5937 H   0  0  0  0  0  0  0  0  0  0  0  0
   -3.3238   -1.5770   -1.0940 H   0  0  0  0  0  0  0  0  0  0  0  0
   -3.5100   -2.4307    0.5336 H   0  0  0  0  0  0  0  0  0  0  0  0
   -1.6349   -1.5981    1.2684 H   0  0  0  0  0  0  0  0  0  0  0  0
  1  2  1  0
  2  3  1  0
  3  4  1  0
  4  5  1  0
  5  6  2  0
  5  7  1  0
  7  8  2  0
  8  9  2  0
  9 10  1  0
 10 11  1  0
 11 12  1  0
 12 13  1  0
 13 14  1  0
 14  7  1  0
 14 10  1  0
  1 15  1  0
  1 16  1  0
  1 17  1  0
  2 18  1  0
  2 19  1  0
  4 20  1  0
 11 21  1  0
 11 22  1  0
 12 23  1  0
 12 24  1  0
 13 25  1  0
M  CHG  1  14  -1
M  END
$$$$

     RDKit          3D

 25 26  0  0  0  0  0  0  0  0999 V2000
    4.8202   -0.6761    0.1953 C   0  0  0  0  0  0  0  0  0  0  0  0
    3.3222   -0.8148    0.0105 C   0  0  0  0  0  0  0  0  0  0  0  0
    2.7384    0.4185    0.2652 O   0  0  0  0  0  0  0  0  0  0  0  0
    1.4139    0.4200    0.1334 N   0  0  0  0  0  0  0  0  0  0  0  0
    0.6961    0.9780   -0.9577 C   0  0  0  0  0  0  0  0  0  0  0  0
    1.3812    1.5101   -1.8648 O   0  0  0  0  0  0  0  0  0  0  0  0
   -0.7501    0.9567   -1.0600 C   0  0  0  0  0  0  0  0  0  0  0  0
   -1.4271    1.4600   -2.0475 C   0  0  0  0  0  0  0  0  0  0  0  0
   -2.6984    1.5220   -1.8546 N   0  0  0  0  0  0  0  0  0  0  0  0
   -3.0000    0.7851   -0.6848 N   0  0  0  0  0  0  0  0  0  0  0  0
   -4.0055    0.2577    0.1909 C   0  0  0  0  0  0  0  0  0  0  0  0
   -3.2672   -0.8127    0.9577 C   0  0  0  0  0  0  0  0  0  0  0  0
   -1.8790   -0.3464    1.0339 N   0  0  0  0  0  0  0  0  0  0  0  0
   -1.7433    0.4113   -0.1584 C   0  0  0  0  0  3  0  0  0  0  0  0
    4.9998   -0.1068    1.1493 H   0  0  0  0  0  0  0  0  0  0  0  0
    5.1859   -0.0052   -0.6161 H   0  0  0  0  0  0  0  0  0  0  0  0
    5.3400   -1.6438    0.1918 H   0  0  0  0  0  0  0  0  0  0  0  0
    3.1651   -1.1534   -1.0301 H   0  0  0  0  0  0  0  0  0  0  0  0
    2.9441   -1.6048    0.6863 H   0  0  0  0  0  0  0  0  0  0  0  0
    0.8278   -0.0231    0.8876 H   0  0  0  0  0  0  0  0  0  0  0  0
   -4.8177   -0.1782   -0.4410 H   0  0  0  0  0  0  0  0  0  0  0  0
   -4.3829    1.0640    0.8481 H   0  0  0  0  0  0  0  0  0  0  0  0
   -3.7080   -0.9542    1.9627 H   0  0  0  0  0  0  0  0  0  0  0  0
   -3.3291   -1.7438    0.3390 H   0  0  0  0  0  0  0  0  0  0  0  0
   -1.8264    0.2799    1.8634 H   0  0  0  0  0  0  0  0  0  0  0  0
  1  2  1  0
  2  3  1  0
  3  4  1  0
  4  5  1  0
  5  6  2  0
  5  7  1  0
  7  8  2  0
  8  9  2  0
  9 10  1  0
 10 11  1  0
 11 12  1  0
 12 13  1  0
 13 14  1  0
 14  7  1  0
 14 10  1  0
  1 15  1  0
  1 16  1  0
  1 17  1  0
  2 18  1  0
  2 19  1  0
  4 20  1  0
 11 21  1  0
 11 22  1  0
 12 23  1  0
 12 24  1  0
 13 25  1  0
M  CHG  1  14  -1
M  END
$$$$

     RDKit          3D

 25 26  0  0  0  0  0  0  0  0999 V2000
    5.0762    0.6087   -0.1116 C   0  0  0  0  0  0  0  0  0  0  0  0
    3.7607    0.0056    0.3586 C   0  0  0  0  0  0  0  0  0  0  0  0
    2.9603   -0.2593   -0.7257 O   0  0  0  0  0  0  0  0  0  0  0  0
    1.7904   -0.7980   -0.3355 N   0  0  0  0  0  0  0  0  0  0  0  0
    0.6105    0.0242   -0.3776 C   0  0  0  0  0  0  0  0  0  0  0  0
    0.6797    1.2174   -0.7695 O   0  0  0  0  0  0  0  0  0  0  0  0
   -0.6570   -0.5451    0.0363 C   0  0  0  0  0  0  0  0  0  0  0  0
   -0.8678   -1.7912    0.4413 C   0  0  0  0  0  0  0  0  0  0  0  0
   -2.0701   -2.1802    0.1337 N   0  0  0  0  0  0  0  0  0  0  0  0
   -2.8981   -1.0361    0.1542 N   0  0  0  0  0  0  0  0  0  0  0  0
   -4.2097   -0.4431    0.2018 C   0  0  0  0  0  0  0  0  0  0  0  0
   -3.9372    0.9350    0.7547 C   0  0  0  0  0  0  0  0  0  0  0  0
   -2.6803    1.2884    0.1157 N   0  0  0  0  0  0  0  0  0  0  0  0
   -1.9784    0.0672    0.0930 C   0  0  0  0  0  3  0  0  0  0  0  0
    4.8988    1.3399   -0.8989 H   0  0  0  0  0  0  0  0  0  0  0  0
    5.7021   -0.2196   -0.5351 H   0  0  0  0  0  0  0  0  0  0  0  0
    5.6112    1.0829    0.7339 H   0  0  0  0  0  0  0  0  0  0  0  0
    4.0138   -0.9006    0.9358 H   0  0  0  0  0  0  0  0  0  0  0  0
    3.2443    0.7810    0.9831 H   0  0  0  0  0  0  0  0  0  0  0  0
    1.7136   -1.7843   -0.0050 H   0  0  0  0  0  0  0  0  0  0  0  0
   -4.5561   -0.3898   -0.8731 H   0  0  0  0  0  0  0  0  0  0  0  0
   -4.8615   -1.0554    0.8236 H   0  0  0  0  0  0  0  0  0  0  0  0
   -3.7329    0.8028    1.8312 H   0  0  0  0  0  0  0  0  0  0  0  0
   -4.7433    1.6648    0.5534 H   0  0  0  0  0  0  0  0  0  0  0  0
   -2.8692    1.5847   -0.8484 H   0  0  0  0  0  0  0  0  0  0  0  0
  1  2  1  0
  2  3  1  0
  3  4  1  0
  4  5  1  0
  5  6  2  0
  5  7  1  0
  7  8  2  0
  8  9  2  0
  9 10  1  0
 10 11  1  0
 11 12  1  0
 12 13  1  0
 13 14  1  0
 14  7  1  0
 14 10  1  0
  1 15  1  0
  1 16  1  0
  1 17  1  0
  2 18  1  0
  2 19  1  0
  4 20  1  0
 11 21  1  0
 11 22  1  0
 12 23  1  0
 12 24  1  0
 13 25  1  0
M  CHG  1  14  -1
M  END
$$$$

     RDKit          3D

 25 26  0  0  0  0  0  0  0  0999 V2000
    4.5939   -0.8812   -0.1143 C   0  0  0  0  0  0  0  0  0  0  0  0
    3.5339    0.1323    0.3965 C   0  0  0  0  0  0  0  0  0  0  0  0
    3.1508    0.8497   -0.7390 O   0  0  0  0  0  0  0  0  0  0  0  0
    1.8962    0.8268   -0.9336 N   0  0  0  0  0  0  0  0  0  0  0  0
    0.7379    0.6539   -0.2135 C   0  0  0  0  0  0  0  0  0  0  0  0
    0.8758    0.6231    1.0874 O   0  0  0  0  0  0  0  0  0  0  0  0
   -0.6222    0.4889   -0.7281 C   0  0  0  0  0  0  0  0  0  0  0  0
   -1.0169    0.3712   -1.9997 C   0  0  0  0  0  0  0  0  0  0  0  0
   -1.6765   -0.7975   -2.0122 N   0  0  0  0  0  0  0  0  0  0  0  0
   -2.5524   -0.6507   -0.8890 N   0  0  0  0  0  0  0  0  0  0  0  0
   -3.8058   -0.9889   -0.2275 C   0  0  0  0  0  0  0  0  0  0  0  0
   -3.9971    0.2890    0.6275 C   0  0  0  0  0  0  0  0  0  0  0  0
   -2.6096    0.5259    1.1416 N   0  0  0  0  0  0  0  0  0  0  0  0
   -1.8262    0.2656   -0.0072 C   0  0  0  0  0  3  0  0  0  0  0  0
    4.0278   -1.5753   -0.8598 H   0  0  0  0  0  0  0  0  0  0  0  0
    5.3291   -0.3448   -0.6867 H   0  0  0  0  0  0  0  0  0  0  0  0
    5.0081   -1.4798    0.7289 H   0  0  0  0  0  0  0  0  0  0  0  0
    4.2681    0.9045    0.9289 H   0  0  0  0  0  0  0  0  0  0  0  0
    2.8997   -0.1641    1.1378 H   0  0  0  0  0  0  0  0  0  0  0  0
    1.6930    1.1639   -1.9928 H   0  0  0  0  0  0  0  0  0  0  0  0
   -3.6998   -1.8225    0.4978 H   0  0  0  0  0  0  0  0  0  0  0  0
   -4.6194   -1.1317   -0.9043 H   0  0  0  0  0  0  0  0  0  0  0  0
   -4.2809    1.0876   -0.0696 H   0  0  0  0  0  0  0  0  0  0  0  0
   -4.7015    0.0840    1.4661 H   0  0  0  0  0  0  0  0  0  0  0  0
   -2.6057    1.5702    1.4121 H   0  0  0  0  0  0  0  0  0  0  0  0
  1  2  1  0
  2  3  1  0
  3  4  1  0
  4  5  1  0
  5  6  2  0
  5  7  1  0
  7  8  2  0
  8  9  2  0
  9 10  1  0
 10 11  1  0
 11 12  1  0
 12 13  1  0
 13 14  1  0
 14  7  1  0
 14 10  1  0
  1 15  1  0
  1 16  1  0
  1 17  1  0
  2 18  1  0
  2 19  1  0
  4 20  1  0
 11 21  1  0
 11 22  1  0
 12 23  1  0
 12 24  1  0
 13 25  1  0
M  CHG  1  14  -1
M  END
$$$$

     RDKit          3D

 25 26  0  0  0  0  0  0  0  0999 V2000
    5.0060   -0.4323    0.0451 C   0  0  0  0  0  0  0  0  0  0  0  0
    3.5017   -0.6808    0.0842 C   0  0  0  0  0  0  0  0  0  0  0  0
    2.8014    0.4942   -0.0613 O   0  0  0  0  0  0  0  0  0  0  0  0
    1.4475    0.3394   -0.0393 N   0  0  0  0  0  0  0  0  0  0  0  0
    0.5971    1.3352   -0.5571 C   0  0  0  0  0  0  0  0  0  0  0  0
    1.2086    2.3634   -1.0441 O   0  0  0  0  0  0  0  0  0  0  0  0
   -0.8399    1.3347   -0.6004 C   0  0  0  0  0  0  0  0  0  0  0  0
   -1.6088    2.3036   -1.1122 C   0  0  0  0  0  0  0  0  0  0  0  0
   -2.6982    1.8236   -1.6272 N   0  0  0  0  0  0  0  0  0  0  0  0
   -3.0363    0.7133   -0.8385 N   0  0  0  0  0  0  0  0  0  0  0  0
   -4.0510   -0.2331   -0.4143 C   0  0  0  0  0  0  0  0  0  0  0  0
   -3.5130   -0.6886    0.9283 C   0  0  0  0  0  0  0  0  0  0  0  0
   -2.0685   -0.7519    0.6855 N   0  0  0  0  0  0  0  0  0  0  0  0
   -1.8304    0.3684   -0.1475 C   0  0  0  0  0  3  0  0  0  0  0  0
    5.4348   -0.2776    1.0610 H   0  0  0  0  0  0  0  0  0  0  0  0
    5.2415    0.4750   -0.5444 H   0  0  0  0  0  0  0  0  0  0  0  0
    5.5166   -1.3334   -0.3667 H   0  0  0  0  0  0  0  0  0  0  0  0
    3.3031   -1.0453    1.1281 H   0  0  0  0  0  0  0  0  0  0  0  0
    3.2414   -1.4685   -0.6577 H   0  0  0  0  0  0  0  0  0  0  0  0
    0.9940   -0.5051    0.3508 H   0  0  0  0  0  0  0  0  0  0  0  0
   -4.0641   -1.1398   -1.0733 H   0  0  0  0  0  0  0  0  0  0  0  0
   -5.0491    0.2521   -0.3373 H   0  0  0  0  0  0  0  0  0  0  0  0
   -3.9213   -1.6679    1.2265 H   0  0  0  0  0  0  0  0  0  0  0  0
   -3.7203    0.0836    1.6887 H   0  0  0  0  0  0  0  0  0  0  0  0
   -1.8927   -1.6625    0.1691 H   0  0  0  0  0  0  0  0  0  0  0  0
  1  2  1  0
  2  3  1  0
  3  4  1  0
  4  5  1  0
  5  6  2  0
  5  7  1  0
  7  8  2  0
  8  9  2  0
  9 10  1  0
 10 11  1  0
 11 12  1  0
 12 13  1  0
 13 14  1  0
 14  7  1  0
 14 10  1  0
  1 15  1  0
  1 16  1  0
  1 17  1  0
  2 18  1  0
  2 19  1  0
  4 20  1  0
 11 21  1  0
 11 22  1  0
 12 23  1  0
 12 24  1  0
 13 25  1  0
M  CHG  1  14  -1
M  END
$$$$

     RDKit          3D

 25 26  0  0  0  0  0  0  0  0999 V2000
    4.8802   -0.3554    0.6012 C   0  0  0  0  0  0  0  0  0  0  0  0
    3.3539   -0.3131    0.8059 C   0  0  0  0  0  0  0  0  0  0  0  0
    2.7819   -0.2276   -0.4302 O   0  0  0  0  0  0  0  0  0  0  0  0
    1.4427   -0.1604   -0.4755 N   0  0  0  0  0  0  0  0  0  0  0  0
    0.7418    0.8078   -1.2346 C   0  0  0  0  0  0  0  0  0  0  0  0
    1.4695    1.6273   -1.8740 O   0  0  0  0  0  0  0  0  0  0  0  0
   -0.6859    0.9477   -1.3486 C   0  0  0  0  0  0  0  0  0  0  0  0
   -1.2948    1.8654   -2.0766 C   0  0  0  0  0  0  0  0  0  0  0  0
   -2.4484    1.4534   -2.5027 N   0  0  0  0  0  0  0  0  0  0  0  0
   -2.9402    0.5395   -1.5333 N   0  0  0  0  0  0  0  0  0  0  0  0
   -4.0362   -0.1883   -0.9729 C   0  0  0  0  0  0  0  0  0  0  0  0
   -3.5402   -0.5731    0.4147 C   0  0  0  0  0  0  0  0  0  0  0  0
   -2.0906   -0.7181    0.2669 N   0  0  0  0  0  0  0  0  0  0  0  0
   -1.7852    0.1947   -0.7595 C   0  0  0  0  0  3  0  0  0  0  0  0
    5.0718   -1.1681   -0.1318 H   0  0  0  0  0  0  0  0  0  0  0  0
    5.1373    0.6113    0.0691 H   0  0  0  0  0  0  0  0  0  0  0  0
    5.4309   -0.4436    1.5426 H   0  0  0  0  0  0  0  0  0  0  0  0
    3.1628    0.5405    1.4867 H   0  0  0  0  0  0  0  0  0  0  0  0
    3.1056   -1.2329    1.3527 H   0  0  0  0  0  0  0  0  0  0  0  0
    0.8853   -0.8446    0.0705 H   0  0  0  0  0  0  0  0  0  0  0  0
   -4.2256   -1.1228   -1.5511 H   0  0  0  0  0  0  0  0  0  0  0  0
   -4.9189    0.4804   -0.9076 H   0  0  0  0  0  0  0  0  0  0  0  0
   -3.8007    0.2622    1.1217 H   0  0  0  0  0  0  0  0  0  0  0  0
   -4.0165   -1.5114    0.7906 H   0  0  0  0  0  0  0  0  0  0  0  0
   -1.6805   -0.4709    1.2063 H   0  0  0  0  0  0  0  0  0  0  0  0
  1  2  1  0
  2  3  1  0
  3  4  1  0
  4  5  1  0
  5  6  2  0
  5  7  1  0
  7  8  2  0
  8  9  2  0
  9 10  1  0
 10 11  1  0
 11 12  1  0
 12 13  1  0
 13 14  1  0
 14  7  1  0
 14 10  1  0
  1 15  1  0
  1 16  1  0
  1 17  1  0
  2 18  1  0
  2 19  1  0
  4 20  1  0
 11 21  1  0
 11 22  1  0
 12 23  1  0
 12 24  1  0
 13 25  1  0
M  CHG  1  14  -1
M  END
$$$$
