
     RDKit          3D

 23 23  0  0  0  0  0  0  0  0999 V2000
    4.7498    0.1324    0.0347 C   0  0  0  0  0  0  0  0  0  0  0  0
    3.4527   -0.4762   -0.1254 N   0  0  0  0  0  0  0  0  0  0  0  0
    2.2334    0.2305    0.0395 C   0  0  0  0  0  0  0  0  0  0  0  0
    2.2646    1.4495    0.3405 O   0  0  0  0  0  0  0  0  0  0  0  0
    0.9592   -0.3767   -0.1201 N   0  0  0  0  0  0  0  0  0  0  0  0
   -0.2428    0.3762    0.0563 C   0  0  0  0  0  0  0  0  0  0  0  0
   -0.3717    1.6342    0.3657 C   0  0  0  0  0  0  0  0  0  0  0  0
   -1.5602    2.0835    0.4712 N   0  0  0  0  0  0  0  0  0  0  0  0
   -2.4297    1.0282    0.2028 N   0  0  0  0  0  0  0  0  0  0  0  0
   -3.8963    1.0597    0.2002 C   0  0  0  0  0  0  0  0  0  0  0  0
   -1.6130   -0.1026   -0.0724 C   0  0  0  0  0  3  0  0  0  0  0  0
   -2.0556   -1.4371   -0.4071 C   0  0  0  0  0  0  0  0  0  0  0  0
   -1.2462   -2.3689   -0.6329 O   0  0  0  0  0  0  0  0  0  0  0  0
   -3.4270   -1.7018   -0.4826 O   0  0  0  0  0  0  0  0  0  0  0  0
    5.3742   -0.5823    0.6299 H   0  0  0  0  0  0  0  0  0  0  0  0
    5.2824    0.2548   -0.9512 H   0  0  0  0  0  0  0  0  0  0  0  0
    4.6850    1.1101    0.5646 H   0  0  0  0  0  0  0  0  0  0  0  0
    3.4419   -1.5047   -0.3792 H   0  0  0  0  0  0  0  0  0  0  0  0
    0.9414   -1.3872   -0.3695 H   0  0  0  0  0  0  0  0  0  0  0  0
   -4.3089    0.6982    1.1576 H   0  0  0  0  0  0  0  0  0  0  0  0
   -4.3229    0.4536   -0.6112 H   0  0  0  0  0  0  0  0  0  0  0  0
   -4.2208    2.1085    0.0433 H   0  0  0  0  0  0  0  0  0  0  0  0
   -3.6897   -2.6815   -0.3975 H   0  0  0  0  0  0  0  0  0  0  0  0
  1  2  1  0
  2  3  1  0
  3  4  2  0
  3  5  1  0
  5  6  1  0
  6  7  2  0
  7  8  2  0
  8  9  1  0
  9 10  1  0
  9 11  1  0
 11 12  1  0
 12 13  2  0
 12 14  1  0
 11  6  1  0
  1 15  1  0
  1 16  1  0
  1 17  1  0
  2 18  1  0
  5 19  1  0
 10 20  1  0
 10 21  1  0
 10 22  1  0
 14 23  1  0
M  CHG  1  11  -1
M  END
$$$$

     RDKit          3D

 23 23  0  0  0  0  0  0  0  0999 V2000
    4.5860    0.1204    0.4195 C   0  0  0  0  0  0  0  0  0  0  0  0
    3.3045    0.6126   -0.0387 N   0  0  0  0  0  0  0  0  0  0  0  0
    2.1140   -0.0852    0.2913 C   0  0  0  0  0  0  0  0  0  0  0  0
    2.1777   -1.1337    0.9840 O   0  0  0  0  0  0  0  0  0  0  0  0
    0.8382    0.3656   -0.1392 N   0  0  0  0  0  0  0  0  0  0  0  0
   -0.3144   -0.3787    0.2252 C   0  0  0  0  0  0  0  0  0  0  0  0
   -0.3993   -1.4690    0.9295 C   0  0  0  0  0  0  0  0  0  0  0  0
   -1.5939   -1.9249    1.0983 N   0  0  0  0  0  0  0  0  0  0  0  0
   -2.5051   -1.0686    0.4421 N   0  0  0  0  0  0  0  0  0  0  0  0
   -3.9482   -1.1683    0.3533 C   0  0  0  0  0  0  0  0  0  0  0  0
   -1.6899   -0.0572   -0.1313 C   0  0  0  0  0  3  0  0  0  0  0  0
   -2.1434    1.0777   -0.9206 C   0  0  0  0  0  0  0  0  0  0  0  0
   -3.3746    1.2247   -1.1478 O   0  0  0  0  0  0  0  0  0  0  0  0
   -1.2907    2.0245   -1.4478 O   0  0  0  0  0  0  0  0  0  0  0  0
    4.5041   -0.9919    0.4382 H   0  0  0  0  0  0  0  0  0  0  0  0
    5.3956    0.4248   -0.2703 H   0  0  0  0  0  0  0  0  0  0  0  0
    4.8160    0.5301    1.4368 H   0  0  0  0  0  0  0  0  0  0  0  0
    3.2862    1.4823   -0.6095 H   0  0  0  0  0  0  0  0  0  0  0  0
    0.7952    1.2329   -0.7111 H   0  0  0  0  0  0  0  0  0  0  0  0
   -4.1765   -2.2720    0.4234 H   0  0  0  0  0  0  0  0  0  0  0  0
   -4.4285   -0.6724    1.2222 H   0  0  0  0  0  0  0  0  0  0  0  0
   -4.3507   -0.8372   -0.6128 H   0  0  0  0  0  0  0  0  0  0  0  0
   -1.6022    2.9635   -1.6679 H   0  0  0  0  0  0  0  0  0  0  0  0
  1  2  1  0
  2  3  1  0
  3  4  2  0
  3  5  1  0
  5  6  1  0
  6  7  2  0
  7  8  2  0
  8  9  1  0
  9 10  1  0
  9 11  1  0
 11 12  1  0
 12 13  2  0
 12 14  1  0
 11  6  1  0
  1 15  1  0
  1 16  1  0
  1 17  1  0
  2 18  1  0
  5 19  1  0
 10 20  1  0
 10 21  1  0
 10 22  1  0
 14 23  1  0
M  CHG  1  11  -1
M  END
$$$$

     RDKit          3D

 23 23  0  0  0  0  0  0  0  0999 V2000
    4.6202   -0.5378    0.1375 C   0  0  0  0  0  0  0  0  0  0  0  0
    3.2194   -0.9211   -0.0529 N   0  0  0  0  0  0  0  0  0  0  0  0
    2.1531    0.0119    0.1413 C   0  0  0  0  0  0  0  0  0  0  0  0
    2.3971    1.1856    0.4809 O   0  0  0  0  0  0  0  0  0  0  0  0
    0.7906   -0.3804   -0.0493 N   0  0  0  0  0  0  0  0  0  0  0  0
   -0.2884    0.5184    0.1347 C   0  0  0  0  0  0  0  0  0  0  0  0
   -0.2741    1.7709    0.4824 C   0  0  0  0  0  0  0  0  0  0  0  0
   -1.4265    2.3413    0.5670 N   0  0  0  0  0  0  0  0  0  0  0  0
   -2.4054    1.3950    0.2475 N   0  0  0  0  0  0  0  0  0  0  0  0
   -3.8444    1.6159    0.2211 C   0  0  0  0  0  0  0  0  0  0  0  0
   -1.6943    0.1967   -0.0389 C   0  0  0  0  0  3  0  0  0  0  0  0
   -2.2805   -1.0744   -0.4239 C   0  0  0  0  0  0  0  0  0  0  0  0
   -3.5310   -1.2243   -0.5409 O   0  0  0  0  0  0  0  0  0  0  0  0
   -1.5100   -2.1973   -0.6860 O   0  0  0  0  0  0  0  0  0  0  0  0
    5.1781   -1.3838    0.5909 H   0  0  0  0  0  0  0  0  0  0  0  0
    4.6868    0.3833    0.7515 H   0  0  0  0  0  0  0  0  0  0  0  0
    4.9955   -0.2855   -0.8786 H   0  0  0  0  0  0  0  0  0  0  0  0
    2.9811   -1.8924   -0.3362 H   0  0  0  0  0  0  0  0  0  0  0  0
    0.6469   -1.3736   -0.3329 H   0  0  0  0  0  0  0  0  0  0  0  0
   -4.0817    2.6831    0.0519 H   0  0  0  0  0  0  0  0  0  0  0  0
   -4.2893    1.3029    1.1719 H   0  0  0  0  0  0  0  0  0  0  0  0
   -4.2609    0.9952   -0.6028 H   0  0  0  0  0  0  0  0  0  0  0  0
   -1.7824   -3.1295   -0.3813 H   0  0  0  0  0  0  0  0  0  0  0  0
  1  2  1  0
  2  3  1  0
  3  4  2  0
  3  5  1  0
  5  6  1  0
  6  7  2  0
  7  8  2  0
  8  9  1  0
  9 10  1  0
  9 11  1  0
 11 12  1  0
 12 13  2  0
 12 14  1  0
 11  6  1  0
  1 15  1  0
  1 16  1  0
  1 17  1  0
  2 18  1  0
  5 19  1  0
 10 20  1  0
 10 21  1  0
 10 22  1  0
 14 23  1  0
M  CHG  1  11  -1
M  END
$$$$

     RDKit          3D

 23 23  0  0  0  0  0  0  0  0999 V2000
    4.7223   -0.0642    0.0744 C   0  0  0  0  0  0  0  0  0  0  0  0
    3.4068   -0.2787    0.6506 N   0  0  0  0  0  0  0  0  0  0  0  0
    2.2114   -0.0467   -0.0794 C   0  0  0  0  0  0  0  0  0  0  0  0
    2.3445    0.3634   -1.2777 O   0  0  0  0  0  0  0  0  0  0  0  0
    0.9146   -0.2542    0.4770 N   0  0  0  0  0  0  0  0  0  0  0  0
   -0.2227   -0.0002   -0.3150 C   0  0  0  0  0  0  0  0  0  0  0  0
   -0.2331    0.4266   -1.5684 C   0  0  0  0  0  0  0  0  0  0  0  0
   -1.4087    0.5827   -2.0642 N   0  0  0  0  0  0  0  0  0  0  0  0
   -2.3607    0.2350   -1.0857 N   0  0  0  0  0  0  0  0  0  0  0  0
   -3.7844    0.2761   -1.2615 C   0  0  0  0  0  0  0  0  0  0  0  0
   -1.6167   -0.1481    0.0624 C   0  0  0  0  0  3  0  0  0  0  0  0
   -2.1082   -0.5962    1.3520 C   0  0  0  0  0  0  0  0  0  0  0  0
   -1.3459   -0.9066    2.2886 O   0  0  0  0  0  0  0  0  0  0  0  0
   -3.4809   -0.7073    1.6230 O   0  0  0  0  0  0  0  0  0  0  0  0
    4.7219   -0.2812   -1.0269 H   0  0  0  0  0  0  0  0  0  0  0  0
    5.0947    0.9593    0.2300 H   0  0  0  0  0  0  0  0  0  0  0  0
    5.4017   -0.8297    0.5417 H   0  0  0  0  0  0  0  0  0  0  0  0
    3.3283   -0.6119    1.6255 H   0  0  0  0  0  0  0  0  0  0  0  0
    0.8208   -0.5861    1.4472 H   0  0  0  0  0  0  0  0  0  0  0  0
   -4.3368    0.3334   -0.3153 H   0  0  0  0  0  0  0  0  0  0  0  0
   -4.0885    1.1490   -1.9087 H   0  0  0  0  0  0  0  0  0  0  0  0
   -4.1770   -0.6244   -1.8112 H   0  0  0  0  0  0  0  0  0  0  0  0
   -3.8034   -1.3643    2.3415 H   0  0  0  0  0  0  0  0  0  0  0  0
  1  2  1  0
  2  3  1  0
  3  4  2  0
  3  5  1  0
  5  6  1  0
  6  7  2  0
  7  8  2  0
  8  9  1  0
  9 10  1  0
  9 11  1  0
 11 12  1  0
 12 13  2  0
 12 14  1  0
 11  6  1  0
  1 15  1  0
  1 16  1  0
  1 17  1  0
  2 18  1  0
  5 19  1  0
 10 20  1  0
 10 21  1  0
 10 22  1  0
 14 23  1  0
M  CHG  1  11  -1
M  END
$$$$

     RDKit          3D

 23 23  0  0  0  0  0  0  0  0999 V2000
    4.6801   -0.4351    0.1102 C   0  0  0  0  0  0  0  0  0  0  0  0
    3.4033    0.0182    0.6338 N   0  0  0  0  0  0  0  0  0  0  0  0
    2.2147   -0.2993   -0.0920 C   0  0  0  0  0  0  0  0  0  0  0  0
    2.3250   -0.9597   -1.1565 O   0  0  0  0  0  0  0  0  0  0  0  0
    0.9686    0.1491    0.4288 N   0  0  0  0  0  0  0  0  0  0  0  0
   -0.2191   -0.1654   -0.2918 C   0  0  0  0  0  0  0  0  0  0  0  0
   -0.3157   -0.8338   -1.4051 C   0  0  0  0  0  0  0  0  0  0  0  0
   -1.5171   -1.1831   -1.7185 N   0  0  0  0  0  0  0  0  0  0  0  0
   -2.4074   -0.4844   -0.8859 N   0  0  0  0  0  0  0  0  0  0  0  0
   -3.8738   -0.4551   -0.9688 C   0  0  0  0  0  0  0  0  0  0  0  0
   -1.5885    0.1923    0.0590 C   0  0  0  0  0  3  0  0  0  0  0  0
   -2.0253    1.0474    1.1317 C   0  0  0  0  0  0  0  0  0  0  0  0
   -1.2607    1.6145    1.9301 O   0  0  0  0  0  0  0  0  0  0  0  0
   -3.3979    1.2748    1.3133 O   0  0  0  0  0  0  0  0  0  0  0  0
    5.1703    0.3663   -0.4806 H   0  0  0  0  0  0  0  0  0  0  0  0
    4.5038   -1.3027   -0.5356 H   0  0  0  0  0  0  0  0  0  0  0  0
    5.3553   -0.7156    0.9601 H   0  0  0  0  0  0  0  0  0  0  0  0
    3.3327    0.5748    1.5349 H   0  0  0  0  0  0  0  0  0  0  0  0
    0.9118    0.6958    1.3160 H   0  0  0  0  0  0  0  0  0  0  0  0
   -4.1361   -0.9324   -1.9360 H   0  0  0  0  0  0  0  0  0  0  0  0
   -4.1403    0.6307   -0.9635 H   0  0  0  0  0  0  0  0  0  0  0  0
   -4.2704   -0.9714   -0.0892 H   0  0  0  0  0  0  0  0  0  0  0  0
   -3.7137    2.1742    1.6895 H   0  0  0  0  0  0  0  0  0  0  0  0
  1  2  1  0
  2  3  1  0
  3  4  2  0
  3  5  1  0
  5  6  1  0
  6  7  2  0
  7  8  2  0
  8  9  1  0
  9 10  1  0
  9 11  1  0
 11 12  1  0
 12 13  2  0
 12 14  1  0
 11  6  1  0
  1 15  1  0
  1 16  1  0
  1 17  1  0
  2 18  1  0
  5 19  1  0
 10 20  1  0
 10 21  1  0
 10 22  1  0
 14 23  1  0
M  CHG  1  11  -1
M  END
$$$$

     RDKit          3D

 23 23  0  0  0  0  0  0  0  0999 V2000
    4.6925    0.3853   -0.4267 C   0  0  0  0  0  0  0  0  0  0  0  0
    3.3928    0.8147    0.0529 N   0  0  0  0  0  0  0  0  0  0  0  0
    2.2313    0.0378   -0.2383 C   0  0  0  0  0  0  0  0  0  0  0  0
    2.3801   -1.0062   -0.9102 O   0  0  0  0  0  0  0  0  0  0  0  0
    0.9319    0.3832    0.1892 N   0  0  0  0  0  0  0  0  0  0  0  0
   -0.2195   -0.3945   -0.1041 C   0  0  0  0  0  0  0  0  0  0  0  0
   -0.2931   -1.5129   -0.7856 C   0  0  0  0  0  0  0  0  0  0  0  0
   -1.4647   -2.0540   -0.7948 N   0  0  0  0  0  0  0  0  0  0  0  0
   -2.3793   -1.1919   -0.1566 N   0  0  0  0  0  0  0  0  0  0  0  0
   -3.8028   -1.3201    0.0276 C   0  0  0  0  0  0  0  0  0  0  0  0
   -1.5848   -0.1062    0.2989 C   0  0  0  0  0  3  0  0  0  0  0  0
   -2.0472    1.0649    1.0260 C   0  0  0  0  0  0  0  0  0  0  0  0
   -1.2811    1.9880    1.3967 O   0  0  0  0  0  0  0  0  0  0  0  0
   -3.3954    1.2185    1.3519 O   0  0  0  0  0  0  0  0  0  0  0  0
    4.6385   -0.1224   -1.4001 H   0  0  0  0  0  0  0  0  0  0  0  0
    5.4094    1.2398   -0.4604 H   0  0  0  0  0  0  0  0  0  0  0  0
    5.1059   -0.3408    0.3052 H   0  0  0  0  0  0  0  0  0  0  0  0
    3.2912    1.6808    0.6067 H   0  0  0  0  0  0  0  0  0  0  0  0
    0.8332    1.2571    0.7475 H   0  0  0  0  0  0  0  0  0  0  0  0
   -4.1103   -1.0042    1.0649 H   0  0  0  0  0  0  0  0  0  0  0  0
   -4.0709   -2.4157   -0.0179 H   0  0  0  0  0  0  0  0  0  0  0  0
   -4.3977   -0.7196   -0.6807 H   0  0  0  0  0  0  0  0  0  0  0  0
   -3.8599    2.1183    1.3412 H   0  0  0  0  0  0  0  0  0  0  0  0
  1  2  1  0
  2  3  1  0
  3  4  2  0
  3  5  1  0
  5  6  1  0
  6  7  2  0
  7  8  2  0
  8  9  1  0
  9 10  1  0
  9 11  1  0
 11 12  1  0
 12 13  2  0
 12 14  1  0
 11  6  1  0
  1 15  1  0
  1 16  1  0
  1 17  1  0
  2 18  1  0
  5 19  1  0
 10 20  1  0
 10 21  1  0
 10 22  1  0
 14 23  1  0
M  CHG  1  11  -1
M  END
$$$$

     RDKit          3D

 23 23  0  0  0  0  0  0  0  0999 V2000
    4.6109   -0.2373   -0.0156 C   0  0  0  0  0  0  0  0  0  0  0  0
    3.3394    0.4315   -0.3288 N   0  0  0  0  0  0  0  0  0  0  0  0
    2.1099   -0.1849   -0.0173 C   0  0  0  0  0  0  0  0  0  0  0  0
    2.1210   -1.3253    0.5372 O   0  0  0  0  0  0  0  0  0  0  0  0
    0.8432    0.3863   -0.2831 N   0  0  0  0  0  0  0  0  0  0  0  0
   -0.3439   -0.3117    0.0676 C   0  0  0  0  0  0  0  0  0  0  0  0
   -0.4319   -1.4854    0.6392 C   0  0  0  0  0  0  0  0  0  0  0  0
   -1.5970   -2.0340    0.5553 N   0  0  0  0  0  0  0  0  0  0  0  0
   -2.5148   -1.0405    0.2033 N   0  0  0  0  0  0  0  0  0  0  0  0
   -3.9458   -1.1209    0.1670 C   0  0  0  0  0  0  0  0  0  0  0  0
   -1.7252    0.1105   -0.1247 C   0  0  0  0  0  3  0  0  0  0  0  0
   -2.1858    1.4102   -0.5532 C   0  0  0  0  0  0  0  0  0  0  0  0
   -3.3911    1.6864   -0.6920 O   0  0  0  0  0  0  0  0  0  0  0  0
   -1.2626    2.4080   -0.8270 O   0  0  0  0  0  0  0  0  0  0  0  0
    5.1491   -0.4202   -0.9482 H   0  0  0  0  0  0  0  0  0  0  0  0
    5.1831    0.4465    0.6505 H   0  0  0  0  0  0  0  0  0  0  0  0
    4.3912   -1.1874    0.5041 H   0  0  0  0  0  0  0  0  0  0  0  0
    3.3204    1.3671   -0.7836 H   0  0  0  0  0  0  0  0  0  0  0  0
    0.8001    1.3155   -0.7346 H   0  0  0  0  0  0  0  0  0  0  0  0
   -4.2196   -2.1586   -0.1883 H   0  0  0  0  0  0  0  0  0  0  0  0
   -4.4187   -0.4308   -0.5289 H   0  0  0  0  0  0  0  0  0  0  0  0
   -4.3483   -1.0232    1.2148 H   0  0  0  0  0  0  0  0  0  0  0  0
   -1.4838    3.3983   -0.7214 H   0  0  0  0  0  0  0  0  0  0  0  0
  1  2  1  0
  2  3  1  0
  3  4  2  0
  3  5  1  0
  5  6  1  0
  6  7  2  0
  7  8  2  0
  8  9  1  0
  9 10  1  0
  9 11  1  0
 11 12  1  0
 12 13  2  0
 12 14  1  0
 11  6  1  0
  1 15  1  0
  1 16  1  0
  1 17  1  0
  2 18  1  0
  5 19  1  0
 10 20  1  0
 10 21  1  0
 10 22  1  0
 14 23  1  0
M  CHG  1  11  -1
M  END
$$$$

     RDKit          3D

 23 23  0  0  0  0  0  0  0  0999 V2000
   -4.5846    0.0126    0.0061 C   0  0  0  0  0  0  0  0  0  0  0  0
   -3.3182   -0.5813   -0.3029 N   0  0  0  0  0  0  0  0  0  0  0  0
   -2.1181    0.0990   -0.0204 C   0  0  0  0  0  0  0  0  0  0  0  0
   -2.2094    1.2527    0.5160 O   0  0  0  0  0  0  0  0  0  0  0  0
   -0.8338   -0.4335   -0.3015 N   0  0  0  0  0  0  0  0  0  0  0  0
    0.3095    0.3405    0.0259 C   0  0  0  0  0  0  0  0  0  0  0  0
    0.3678    1.5222    0.5712 C   0  0  0  0  0  0  0  0  0  0  0  0
    1.5390    2.0617    0.5829 N   0  0  0  0  0  0  0  0  0  0  0  0
    2.4739    1.1016    0.1838 N   0  0  0  0  0  0  0  0  0  0  0  0
    3.9084    1.2710    0.1669 C   0  0  0  0  0  0  0  0  0  0  0  0
    1.7039   -0.0438   -0.1895 C   0  0  0  0  0  3  0  0  0  0  0  0
    2.2178   -1.3023   -0.6739 C   0  0  0  0  0  0  0  0  0  0  0  0
    3.4484   -1.4717   -0.8025 O   0  0  0  0  0  0  0  0  0  0  0  0
    1.3775   -2.3341   -1.0021 O   0  0  0  0  0  0  0  0  0  0  0  0
   -4.4732    0.5982    0.9377 H   0  0  0  0  0  0  0  0  0  0  0  0
   -4.8450    0.7174   -0.8047 H   0  0  0  0  0  0  0  0  0  0  0  0
   -5.4091   -0.7099    0.1314 H   0  0  0  0  0  0  0  0  0  0  0  0
   -3.2679   -1.5177   -0.7376 H   0  0  0  0  0  0  0  0  0  0  0  0
   -0.7360   -1.3714   -0.7382 H   0  0  0  0  0  0  0  0  0  0  0  0
    4.4401    0.3327    0.3041 H   0  0  0  0  0  0  0  0  0  0  0  0
    4.1615    1.9373    1.0349 H   0  0  0  0  0  0  0  0  0  0  0  0
    4.2089    1.8373   -0.7506 H   0  0  0  0  0  0  0  0  0  0  0  0
    1.6388   -3.3184   -0.9749 H   0  0  0  0  0  0  0  0  0  0  0  0
  1  2  1  0
  2  3  1  0
  3  4  2  0
  3  5  1  0
  5  6  1  0
  6  7  2  0
  7  8  2  0
  8  9  1  0
  9 10  1  0
  9 11  1  0
 11 12  1  0
 12 13  2  0
 12 14  1  0
 11  6  1  0
  1 15  1  0
  1 16  1  0
  1 17  1  0
  2 18  1  0
  5 19  1  0
 10 20  1  0
 10 21  1  0
 10 22  1  0
 14 23  1  0
M  CHG  1  11  -1
M  END
$$$$
