
     RDKit          3D

 31 32  0  0  0  0  0  0  0  0999 V2000
    4.5351   -0.0968   -0.1554 C   0  0  0  0  0  0  0  0  0  0  0  0
    3.5872    1.0879    0.0247 C   0  0  0  0  0  0  0  0  0  0  0  0
    2.3361    0.5840    0.5820 N   0  0  0  0  0  4  0  0  0  0  0  0
    1.1750    0.6826    0.0274 C   0  0  0  0  0  0  0  0  0  0  0  0
    0.1984    0.1640    0.7147 C   0  0  0  0  0  0  0  0  0  0  0  0
   -1.2222    0.1621    0.2862 C   0  0  0  0  0  0  0  0  0  0  0  0
   -2.0108    0.8471    1.2310 O   0  0  0  0  0  0  0  0  0  0  0  0
   -1.3800    0.7637   -1.0575 C   0  0  0  0  0  0  0  0  0  0  0  0
   -2.6189    0.4587   -1.7910 C   0  0  0  0  0  0  0  0  0  0  0  0
   -3.4288   -0.5987   -1.3446 N   0  0  0  0  0  0  0  0  0  0  0  0
   -3.2088   -1.1348   -0.0657 C   0  0  0  0  0  0  0  0  0  0  0  0
   -1.7548   -1.2552    0.2450 C   0  0  0  0  0  0  0  0  0  0  0  0
    0.8025   -0.3586    1.8904 N   0  0  0  0  0  0  0  0  0  0  0  0
    2.1924   -0.0847    1.8026 N   0  0  0  0  0  0  0  0  0  0  0  0
    5.4762    0.3039   -0.5540 H   0  0  0  0  0  0  0  0  0  0  0  0
    4.0453   -0.7870   -0.8450 H   0  0  0  0  0  0  0  0  0  0  0  0
    4.6912   -0.5501    0.8634 H   0  0  0  0  0  0  0  0  0  0  0  0
    4.0241    1.8272    0.7038 H   0  0  0  0  0  0  0  0  0  0  0  0
    3.3891    1.5136   -0.9781 H   0  0  0  0  0  0  0  0  0  0  0  0
   -2.1073    0.2373    2.0240 H   0  0  0  0  0  0  0  0  0  0  0  0
   -1.2252    1.8781   -0.9483 H   0  0  0  0  0  0  0  0  0  0  0  0
   -0.4906    0.4393   -1.6759 H   0  0  0  0  0  0  0  0  0  0  0  0
   -3.2526    1.3961   -1.8087 H   0  0  0  0  0  0  0  0  0  0  0  0
   -2.3874    0.2855   -2.8845 H   0  0  0  0  0  0  0  0  0  0  0  0
   -4.4588   -0.4332   -1.5296 H   0  0  0  0  0  0  0  0  0  0  0  0
   -3.6973   -2.1161    0.0396 H   0  0  0  0  0  0  0  0  0  0  0  0
   -3.6677   -0.4539    0.6983 H   0  0  0  0  0  0  0  0  0  0  0  0
   -1.2058   -1.7633   -0.5989 H   0  0  0  0  0  0  0  0  0  0  0  0
   -1.5455   -1.8187    1.1743 H   0  0  0  0  0  0  0  0  0  0  0  0
    0.2916   -0.8407    2.6441 H   0  0  0  0  0  0  0  0  0  0  0  0
    2.9184   -0.3391    2.5087 H   0  0  0  0  0  0  0  0  0  0  0  0
  1  2  1  0
  2  3  1  0
  3  4  2  0
  4  5  2  0
  5  6  1  0
  6  7  1  0
  6  8  1  0
  8  9  1  0
  9 10  1  0
 10 11  1  0
 11 12  1  0
  5 13  1  0
 13 14  1  0
 14  3  1  0
 12  6  1  0
  1 15  1  0
  1 16  1  0
  1 17  1  0
  2 18  1  0
  2 19  1  0
  7 20  1  0
  8 21  1  0
  8 22  1  0
  9 23  1  0
  9 24  1  0
 10 25  1  0
 11 26  1  0
 11 27  1  0
 12 28  1  0
 12 29  1  0
 13 30  1  0
 14 31  1  0
M  CHG  1   3   1
M  END
$$$$

     RDKit          3D

 31 32  0  0  0  0  0  0  0  0999 V2000
    4.1859    0.5329    1.4471 C   0  0  0  0  0  0  0  0  0  0  0  0
    3.9308   -0.3087    0.2452 C   0  0  0  0  0  0  0  0  0  0  0  0
    2.5402   -0.4179   -0.1011 N   0  0  0  0  0  4  0  0  0  0  0  0
    1.5037    0.0764    0.4385 C   0  0  0  0  0  0  0  0  0  0  0  0
    0.3690   -0.1681   -0.1503 C   0  0  0  0  0  0  0  0  0  0  0  0
   -1.0078    0.2861    0.1692 C   0  0  0  0  0  0  0  0  0  0  0  0
   -0.9509    1.1050    1.3090 O   0  0  0  0  0  0  0  0  0  0  0  0
   -1.8380   -0.9052    0.4946 C   0  0  0  0  0  0  0  0  0  0  0  0
   -3.3113   -0.7028    0.3049 C   0  0  0  0  0  0  0  0  0  0  0  0
   -3.6677    0.6829    0.0838 N   0  0  0  0  0  0  0  0  0  0  0  0
   -2.9995    1.1187   -1.1163 C   0  0  0  0  0  0  0  0  0  0  0  0
   -1.5128    1.0840   -1.0045 C   0  0  0  0  0  0  0  0  0  0  0  0
    0.6744   -1.0159   -1.2497 N   0  0  0  0  0  0  0  0  0  0  0  0
    2.0829   -1.1607   -1.1943 N   0  0  0  0  0  0  0  0  0  0  0  0
    4.0823   -0.0667    2.3763 H   0  0  0  0  0  0  0  0  0  0  0  0
    5.2703    0.8368    1.4209 H   0  0  0  0  0  0  0  0  0  0  0  0
    3.6137    1.4679    1.4647 H   0  0  0  0  0  0  0  0  0  0  0  0
    4.5236    0.0348   -0.6256 H   0  0  0  0  0  0  0  0  0  0  0  0
    4.2922   -1.3535    0.4740 H   0  0  0  0  0  0  0  0  0  0  0  0
   -1.1916    0.6331    2.1290 H   0  0  0  0  0  0  0  0  0  0  0  0
   -1.5286   -1.8349   -0.0502 H   0  0  0  0  0  0  0  0  0  0  0  0
   -1.6812   -1.1476    1.5768 H   0  0  0  0  0  0  0  0  0  0  0  0
   -3.9189   -1.0833    1.1522 H   0  0  0  0  0  0  0  0  0  0  0  0
   -3.6775   -1.2645   -0.5993 H   0  0  0  0  0  0  0  0  0  0  0  0
   -3.5028    1.2892    0.9058 H   0  0  0  0  0  0  0  0  0  0  0  0
   -3.3396    2.1558   -1.3594 H   0  0  0  0  0  0  0  0  0  0  0  0
   -3.3505    0.4672   -1.9444 H   0  0  0  0  0  0  0  0  0  0  0  0
   -1.1051    0.7255   -1.9791 H   0  0  0  0  0  0  0  0  0  0  0  0
   -1.1347    2.1208   -0.8784 H   0  0  0  0  0  0  0  0  0  0  0  0
    0.0214   -1.4502   -1.9580 H   0  0  0  0  0  0  0  0  0  0  0  0
    2.6279   -1.7374   -1.8816 H   0  0  0  0  0  0  0  0  0  0  0  0
  1  2  1  0
  2  3  1  0
  3  4  2  0
  4  5  2  0
  5  6  1  0
  6  7  1  0
  6  8  1  0
  8  9  1  0
  9 10  1  0
 10 11  1  0
 11 12  1  0
  5 13  1  0
 13 14  1  0
 14  3  1  0
 12  6  1  0
  1 15  1  0
  1 16  1  0
  1 17  1  0
  2 18  1  0
  2 19  1  0
  7 20  1  0
  8 21  1  0
  8 22  1  0
  9 23  1  0
  9 24  1  0
 10 25  1  0
 11 26  1  0
 11 27  1  0
 12 28  1  0
 12 29  1  0
 13 30  1  0
 14 31  1  0
M  CHG  1   3   1
M  END
$$$$

     RDKit          3D

 31 32  0  0  0  0  0  0  0  0999 V2000
    3.9417   -0.8287    1.1345 C   0  0  0  0  0  0  0  0  0  0  0  0
    3.8171    0.4996    0.4225 C   0  0  0  0  0  0  0  0  0  0  0  0
    2.4522    0.8134    0.1035 N   0  0  0  0  0  4  0  0  0  0  0  0
    1.3805    0.1523    0.3298 C   0  0  0  0  0  0  0  0  0  0  0  0
    0.3029    0.6136   -0.2420 C   0  0  0  0  0  0  0  0  0  0  0  0
   -1.0488    0.0476   -0.3592 C   0  0  0  0  0  0  0  0  0  0  0  0
   -1.3711   -0.1115   -1.7071 O   0  0  0  0  0  0  0  0  0  0  0  0
   -1.1957   -1.2818    0.3228 C   0  0  0  0  0  0  0  0  0  0  0  0
   -2.5513   -1.8414   -0.0745 C   0  0  0  0  0  0  0  0  0  0  0  0
   -3.6082   -0.9341    0.2227 N   0  0  0  0  0  0  0  0  0  0  0  0
   -3.2159    0.2712    0.8764 C   0  0  0  0  0  0  0  0  0  0  0  0
   -2.0763    0.9843    0.2336 C   0  0  0  0  0  0  0  0  0  0  0  0
    0.6810    1.8709   -0.7852 N   0  0  0  0  0  0  0  0  0  0  0  0
    2.0646    1.9842   -0.5552 N   0  0  0  0  0  0  0  0  0  0  0  0
    3.6442   -1.6666    0.4757 H   0  0  0  0  0  0  0  0  0  0  0  0
    5.0384   -0.9780    1.3265 H   0  0  0  0  0  0  0  0  0  0  0  0
    3.4121   -0.8242    2.0910 H   0  0  0  0  0  0  0  0  0  0  0  0
    4.2660    1.2859    1.0533 H   0  0  0  0  0  0  0  0  0  0  0  0
    4.4610    0.4287   -0.4857 H   0  0  0  0  0  0  0  0  0  0  0  0
   -0.9571   -0.8948   -2.1112 H   0  0  0  0  0  0  0  0  0  0  0  0
   -1.1376   -1.2166    1.4181 H   0  0  0  0  0  0  0  0  0  0  0  0
   -0.4016   -1.9840   -0.0121 H   0  0  0  0  0  0  0  0  0  0  0  0
   -2.7233   -2.8483    0.3904 H   0  0  0  0  0  0  0  0  0  0  0  0
   -2.5102   -1.9553   -1.1943 H   0  0  0  0  0  0  0  0  0  0  0  0
   -4.3652   -1.3773    0.7949 H   0  0  0  0  0  0  0  0  0  0  0  0
   -4.1030    0.9694    0.8382 H   0  0  0  0  0  0  0  0  0  0  0  0
   -3.0110    0.1408    1.9617 H   0  0  0  0  0  0  0  0  0  0  0  0
   -2.4083    1.7267   -0.5213 H   0  0  0  0  0  0  0  0  0  0  0  0
   -1.5413    1.5725    1.0211 H   0  0  0  0  0  0  0  0  0  0  0  0
    0.0952    2.5844   -1.2588 H   0  0  0  0  0  0  0  0  0  0  0  0
    2.6689    2.7972   -0.8320 H   0  0  0  0  0  0  0  0  0  0  0  0
  1  2  1  0
  2  3  1  0
  3  4  2  0
  4  5  2  0
  5  6  1  0
  6  7  1  0
  6  8  1  0
  8  9  1  0
  9 10  1  0
 10 11  1  0
 11 12  1  0
  5 13  1  0
 13 14  1  0
 14  3  1  0
 12  6  1  0
  1 15  1  0
  1 16  1  0
  1 17  1  0
  2 18  1  0
  2 19  1  0
  7 20  1  0
  8 21  1  0
  8 22  1  0
  9 23  1  0
  9 24  1  0
 10 25  1  0
 11 26  1  0
 11 27  1  0
 12 28  1  0
 12 29  1  0
 13 30  1  0
 14 31  1  0
M  CHG  1   3   1
M  END
$$$$

     RDKit          3D

 31 32  0  0  0  0  0  0  0  0999 V2000
   -4.5079    0.4090   -0.3238 C   0  0  0  0  0  0  0  0  0  0  0  0
   -3.2503    1.2285   -0.4328 C   0  0  0  0  0  0  0  0  0  0  0  0
   -2.1453    0.5742    0.2150 N   0  0  0  0  0  4  0  0  0  0  0  0
   -1.0246    0.1799   -0.2730 C   0  0  0  0  0  0  0  0  0  0  0  0
   -0.2148   -0.3968    0.5739 C   0  0  0  0  0  0  0  0  0  0  0  0
    1.1420   -0.9692    0.3336 C   0  0  0  0  0  0  0  0  0  0  0  0
    1.0296   -2.3363    0.6843 O   0  0  0  0  0  0  0  0  0  0  0  0
    1.4766   -0.9049   -1.1058 C   0  0  0  0  0  0  0  0  0  0  0  0
    2.4369    0.1495   -1.5141 C   0  0  0  0  0  0  0  0  0  0  0  0
    2.6545    1.1542   -0.4885 N   0  0  0  0  0  0  0  0  0  0  0  0
    3.2006    0.4393    0.6479 C   0  0  0  0  0  0  0  0  0  0  0  0
    2.0915   -0.3425    1.2762 C   0  0  0  0  0  0  0  0  0  0  0  0
   -0.8904   -0.3829    1.8348 N   0  0  0  0  0  0  0  0  0  0  0  0
   -2.1125    0.2405    1.5707 N   0  0  0  0  0  0  0  0  0  0  0  0
   -5.3418    0.9706   -0.8058 H   0  0  0  0  0  0  0  0  0  0  0  0
   -4.3682   -0.5814   -0.7730 H   0  0  0  0  0  0  0  0  0  0  0  0
   -4.8250    0.2907    0.7476 H   0  0  0  0  0  0  0  0  0  0  0  0
   -3.0704    1.4616   -1.4836 H   0  0  0  0  0  0  0  0  0  0  0  0
   -3.4331    2.2017    0.0918 H   0  0  0  0  0  0  0  0  0  0  0  0
    1.5185   -2.8875    0.0358 H   0  0  0  0  0  0  0  0  0  0  0  0
    1.8853   -1.8919   -1.4765 H   0  0  0  0  0  0  0  0  0  0  0  0
    0.5127   -0.7927   -1.6861 H   0  0  0  0  0  0  0  0  0  0  0  0
    2.0635    0.6679   -2.4238 H   0  0  0  0  0  0  0  0  0  0  0  0
    3.4318   -0.2878   -1.8243 H   0  0  0  0  0  0  0  0  0  0  0  0
    3.3020    1.8765   -0.8439 H   0  0  0  0  0  0  0  0  0  0  0  0
    4.0555   -0.1970    0.3857 H   0  0  0  0  0  0  0  0  0  0  0  0
    3.5653    1.2248    1.3699 H   0  0  0  0  0  0  0  0  0  0  0  0
    1.5739    0.3617    1.9939 H   0  0  0  0  0  0  0  0  0  0  0  0
    2.5832   -1.0943    1.9630 H   0  0  0  0  0  0  0  0  0  0  0  0
   -0.4982   -0.7709    2.7193 H   0  0  0  0  0  0  0  0  0  0  0  0
   -2.8406    0.4055    2.2916 H   0  0  0  0  0  0  0  0  0  0  0  0
  1  2  1  0
  2  3  1  0
  3  4  2  0
  4  5  2  0
  5  6  1  0
  6  7  1  0
  6  8  1  0
  8  9  1  0
  9 10  1  0
 10 11  1  0
 11 12  1  0
  5 13  1  0
 13 14  1  0
 14  3  1  0
 12  6  1  0
  1 15  1  0
  1 16  1  0
  1 17  1  0
  2 18  1  0
  2 19  1  0
  7 20  1  0
  8 21  1  0
  8 22  1  0
  9 23  1  0
  9 24  1  0
 10 25  1  0
 11 26  1  0
 11 27  1  0
 12 28  1  0
 12 29  1  0
 13 30  1  0
 14 31  1  0
M  CHG  1   3   1
M  END
$$$$

     RDKit          3D

 31 32  0  0  0  0  0  0  0  0999 V2000
    4.4801   -0.0349    1.1031 C   0  0  0  0  0  0  0  0  0  0  0  0
    3.6523    0.8921    0.2455 C   0  0  0  0  0  0  0  0  0  0  0  0
    2.4245    0.2811   -0.2128 N   0  0  0  0  0  4  0  0  0  0  0  0
    1.2068    0.6260   -0.0201 C   0  0  0  0  0  0  0  0  0  0  0  0
    0.2770   -0.1140   -0.5578 C   0  0  0  0  0  0  0  0  0  0  0  0
   -1.1812    0.0395   -0.5058 C   0  0  0  0  0  0  0  0  0  0  0  0
   -1.6407    0.1875   -1.8224 O   0  0  0  0  0  0  0  0  0  0  0  0
   -1.8412   -1.1779    0.0656 C   0  0  0  0  0  0  0  0  0  0  0  0
   -3.1033   -0.9045    0.8118 C   0  0  0  0  0  0  0  0  0  0  0  0
   -3.8282    0.2454    0.4291 N   0  0  0  0  0  0  0  0  0  0  0  0
   -3.0986    1.3876    0.0447 C   0  0  0  0  0  0  0  0  0  0  0  0
   -1.6189    1.2336    0.3030 C   0  0  0  0  0  0  0  0  0  0  0  0
    0.9702   -1.1516   -1.2396 N   0  0  0  0  0  0  0  0  0  0  0  0
    2.3409   -0.8706   -0.9998 N   0  0  0  0  0  0  0  0  0  0  0  0
    4.1337   -0.0931    2.1431 H   0  0  0  0  0  0  0  0  0  0  0  0
    4.5649   -1.0175    0.6292 H   0  0  0  0  0  0  0  0  0  0  0  0
    5.5252    0.3936    1.1089 H   0  0  0  0  0  0  0  0  0  0  0  0
    4.3102    1.1831   -0.6227 H   0  0  0  0  0  0  0  0  0  0  0  0
    3.4482    1.8440    0.7771 H   0  0  0  0  0  0  0  0  0  0  0  0
   -1.0289   -0.3634   -2.4038 H   0  0  0  0  0  0  0  0  0  0  0  0
   -1.9859   -1.9030   -0.7724 H   0  0  0  0  0  0  0  0  0  0  0  0
   -1.1222   -1.6609    0.7610 H   0  0  0  0  0  0  0  0  0  0  0  0
   -2.9236   -0.8561    1.9177 H   0  0  0  0  0  0  0  0  0  0  0  0
   -3.7700   -1.7969    0.6728 H   0  0  0  0  0  0  0  0  0  0  0  0
   -4.6676    0.0466   -0.1533 H   0  0  0  0  0  0  0  0  0  0  0  0
   -3.4753    2.3397    0.4861 H   0  0  0  0  0  0  0  0  0  0  0  0
   -3.2027    1.5231   -1.0704 H   0  0  0  0  0  0  0  0  0  0  0  0
   -1.0390    2.1047   -0.0049 H   0  0  0  0  0  0  0  0  0  0  0  0
   -1.5038    0.9940    1.3940 H   0  0  0  0  0  0  0  0  0  0  0  0
    0.5700   -1.9452   -1.7940 H   0  0  0  0  0  0  0  0  0  0  0  0
    3.1269   -1.4319   -1.3541 H   0  0  0  0  0  0  0  0  0  0  0  0
  1  2  1  0
  2  3  1  0
  3  4  2  0
  4  5  2  0
  5  6  1  0
  6  7  1  0
  6  8  1  0
  8  9  1  0
  9 10  1  0
 10 11  1  0
 11 12  1  0
  5 13  1  0
 13 14  1  0
 14  3  1  0
 12  6  1  0
  1 15  1  0
  1 16  1  0
  1 17  1  0
  2 18  1  0
  2 19  1  0
  7 20  1  0
  8 21  1  0
  8 22  1  0
  9 23  1  0
  9 24  1  0
 10 25  1  0
 11 26  1  0
 11 27  1  0
 12 28  1  0
 12 29  1  0
 13 30  1  0
 14 31  1  0
M  CHG  1   3   1
M  END
$$$$

     RDKit          3D

 31 32  0  0  0  0  0  0  0  0999 V2000
    4.6418    0.4271   -0.2044 C   0  0  0  0  0  0  0  0  0  0  0  0
    3.7561   -0.4123    0.7090 C   0  0  0  0  0  0  0  0  0  0  0  0
    2.4537   -0.6214    0.1393 N   0  0  0  0  0  4  0  0  0  0  0  0
    1.3429   -0.2487    0.6809 C   0  0  0  0  0  0  0  0  0  0  0  0
    0.2998   -0.3449   -0.0936 C   0  0  0  0  0  0  0  0  0  0  0  0
   -1.0353    0.1950    0.1827 C   0  0  0  0  0  0  0  0  0  0  0  0
   -1.0853    0.8521    1.4109 O   0  0  0  0  0  0  0  0  0  0  0  0
   -2.1009   -0.8989    0.2455 C   0  0  0  0  0  0  0  0  0  0  0  0
   -3.3342   -0.2299    0.8552 C   0  0  0  0  0  0  0  0  0  0  0  0
   -3.7598    0.8771    0.0549 N   0  0  0  0  0  0  0  0  0  0  0  0
   -2.9762    1.0950   -1.1259 C   0  0  0  0  0  0  0  0  0  0  0  0
   -1.5024    1.1830   -0.8631 C   0  0  0  0  0  0  0  0  0  0  0  0
    0.7523   -1.0716   -1.2268 N   0  0  0  0  0  0  0  0  0  0  0  0
    2.1447   -1.2514   -1.0780 N   0  0  0  0  0  0  0  0  0  0  0  0
    5.6795    0.3231    0.2246 H   0  0  0  0  0  0  0  0  0  0  0  0
    4.3010    1.4827   -0.1964 H   0  0  0  0  0  0  0  0  0  0  0  0
    4.5903   -0.0393   -1.1987 H   0  0  0  0  0  0  0  0  0  0  0  0
    3.6711    0.1597    1.6549 H   0  0  0  0  0  0  0  0  0  0  0  0
    4.2295   -1.3890    0.8675 H   0  0  0  0  0  0  0  0  0  0  0  0
   -0.3621    0.5307    2.0231 H   0  0  0  0  0  0  0  0  0  0  0  0
   -1.7992   -1.7177    0.9146 H   0  0  0  0  0  0  0  0  0  0  0  0
   -2.3215   -1.3208   -0.7389 H   0  0  0  0  0  0  0  0  0  0  0  0
   -4.1073   -0.9619    1.0933 H   0  0  0  0  0  0  0  0  0  0  0  0
   -2.9737    0.1981    1.8364 H   0  0  0  0  0  0  0  0  0  0  0  0
   -4.7572    0.8013   -0.2385 H   0  0  0  0  0  0  0  0  0  0  0  0
   -3.3187    2.0358   -1.5929 H   0  0  0  0  0  0  0  0  0  0  0  0
   -3.1546    0.2810   -1.8641 H   0  0  0  0  0  0  0  0  0  0  0  0
   -0.9490    0.9867   -1.7941 H   0  0  0  0  0  0  0  0  0  0  0  0
   -1.2811    2.2238   -0.5530 H   0  0  0  0  0  0  0  0  0  0  0  0
    0.1624   -1.4005   -2.0059 H   0  0  0  0  0  0  0  0  0  0  0  0
    2.7934   -1.7438   -1.7312 H   0  0  0  0  0  0  0  0  0  0  0  0
  1  2  1  0
  2  3  1  0
  3  4  2  0
  4  5  2  0
  5  6  1  0
  6  7  1  0
  6  8  1  0
  8  9  1  0
  9 10  1  0
 10 11  1  0
 11 12  1  0
  5 13  1  0
 13 14  1  0
 14  3  1  0
 12  6  1  0
  1 15  1  0
  1 16  1  0
  1 17  1  0
  2 18  1  0
  2 19  1  0
  7 20  1  0
  8 21  1  0
  8 22  1  0
  9 23  1  0
  9 24  1  0
 10 25  1  0
 11 26  1  0
 11 27  1  0
 12 28  1  0
 12 29  1  0
 13 30  1  0
 14 31  1  0
M  CHG  1   3   1
M  END
$$$$

     RDKit          3D

 31 32  0  0  0  0  0  0  0  0999 V2000
    3.7615    1.5036    0.6290 C   0  0  0  0  0  0  0  0  0  0  0  0
    3.7848    0.1627   -0.0280 C   0  0  0  0  0  0  0  0  0  0  0  0
    2.4669   -0.3860   -0.2471 N   0  0  0  0  0  4  0  0  0  0  0  0
    1.3298    0.0966    0.0318 C   0  0  0  0  0  0  0  0  0  0  0  0
    0.3080   -0.6965   -0.1322 C   0  0  0  0  0  0  0  0  0  0  0  0
   -1.1062   -0.5448    0.2289 C   0  0  0  0  0  0  0  0  0  0  0  0
   -1.4252   -1.6011    1.1125 O   0  0  0  0  0  0  0  0  0  0  0  0
   -1.4423    0.7298    0.8971 C   0  0  0  0  0  0  0  0  0  0  0  0
   -2.2781    1.6753    0.1249 C   0  0  0  0  0  0  0  0  0  0  0  0
   -3.3371    1.1028   -0.6294 N   0  0  0  0  0  0  0  0  0  0  0  0
   -3.3376   -0.3195   -0.7137 C   0  0  0  0  0  0  0  0  0  0  0  0
   -1.9387   -0.7889   -1.0248 C   0  0  0  0  0  0  0  0  0  0  0  0
    0.8381   -1.8467   -0.7821 N   0  0  0  0  0  0  0  0  0  0  0  0
    2.2237   -1.6239   -0.8439 N   0  0  0  0  0  0  0  0  0  0  0  0
    3.3483    2.2880   -0.0324 H   0  0  0  0  0  0  0  0  0  0  0  0
    4.8106    1.7894    0.8517 H   0  0  0  0  0  0  0  0  0  0  0  0
    3.2422    1.4889    1.6199 H   0  0  0  0  0  0  0  0  0  0  0  0
    4.3683    0.2508   -0.9620 H   0  0  0  0  0  0  0  0  0  0  0  0
    4.3351   -0.5403    0.6306 H   0  0  0  0  0  0  0  0  0  0  0  0
   -0.9997   -2.4454    0.8090 H   0  0  0  0  0  0  0  0  0  0  0  0
   -1.9360    0.5714    1.8988 H   0  0  0  0  0  0  0  0  0  0  0  0
   -0.4782    1.2558    1.1510 H   0  0  0  0  0  0  0  0  0  0  0  0
   -2.7406    2.4027    0.8545 H   0  0  0  0  0  0  0  0  0  0  0  0
   -1.6752    2.3223   -0.5601 H   0  0  0  0  0  0  0  0  0  0  0  0
   -4.2737    1.5258   -0.4649 H   0  0  0  0  0  0  0  0  0  0  0  0
   -3.7204   -0.8040    0.2015 H   0  0  0  0  0  0  0  0  0  0  0  0
   -3.9909   -0.6043   -1.5822 H   0  0  0  0  0  0  0  0  0  0  0  0
   -1.5317   -0.1366   -1.8415 H   0  0  0  0  0  0  0  0  0  0  0  0
   -1.8961   -1.8451   -1.3198 H   0  0  0  0  0  0  0  0  0  0  0  0
    0.3637   -2.6863   -1.1477 H   0  0  0  0  0  0  0  0  0  0  0  0
    2.9266   -2.2965   -1.2734 H   0  0  0  0  0  0  0  0  0  0  0  0
  1  2  1  0
  2  3  1  0
  3  4  2  0
  4  5  2  0
  5  6  1  0
  6  7  1  0
  6  8  1  0
  8  9  1  0
  9 10  1  0
 10 11  1  0
 11 12  1  0
  5 13  1  0
 13 14  1  0
 14  3  1  0
 12  6  1  0
  1 15  1  0
  1 16  1  0
  1 17  1  0
  2 18  1  0
  2 19  1  0
  7 20  1  0
  8 21  1  0
  8 22  1  0
  9 23  1  0
  9 24  1  0
 10 25  1  0
 11 26  1  0
 11 27  1  0
 12 28  1  0
 12 29  1  0
 13 30  1  0
 14 31  1  0
M  CHG  1   3   1
M  END
$$$$

     RDKit          3D

 31 32  0  0  0  0  0  0  0  0999 V2000
    3.3473    0.5052    1.5293 C   0  0  0  0  0  0  0  0  0  0  0  0
    3.5331   -0.0777    0.1550 C   0  0  0  0  0  0  0  0  0  0  0  0
    2.2669   -0.4674   -0.4405 N   0  0  0  0  0  4  0  0  0  0  0  0
    1.1082   -0.3420    0.1158 C   0  0  0  0  0  0  0  0  0  0  0  0
    0.1151   -0.7535   -0.6114 C   0  0  0  0  0  0  0  0  0  0  0  0
   -1.3053   -0.7169   -0.2208 C   0  0  0  0  0  0  0  0  0  0  0  0
   -1.7458   -2.0635   -0.2518 O   0  0  0  0  0  0  0  0  0  0  0  0
   -2.1526    0.0254   -1.2030 C   0  0  0  0  0  0  0  0  0  0  0  0
   -2.6580    1.3401   -0.7602 C   0  0  0  0  0  0  0  0  0  0  0  0
   -2.9442    1.4681    0.6299 N   0  0  0  0  0  0  0  0  0  0  0  0
   -1.6798    1.2181    1.3417 C   0  0  0  0  0  0  0  0  0  0  0  0
   -1.4274   -0.2621    1.1862 C   0  0  0  0  0  0  0  0  0  0  0  0
    0.7055   -1.2214   -1.8113 N   0  0  0  0  0  0  0  0  0  0  0  0
    2.0806   -1.0374   -1.6994 N   0  0  0  0  0  0  0  0  0  0  0  0
    3.9946    1.3996    1.6974 H   0  0  0  0  0  0  0  0  0  0  0  0
    2.2818    0.8475    1.6232 H   0  0  0  0  0  0  0  0  0  0  0  0
    3.5793   -0.2917    2.2856 H   0  0  0  0  0  0  0  0  0  0  0  0
    4.0002    0.6959   -0.5087 H   0  0  0  0  0  0  0  0  0  0  0  0
    4.2566   -0.9312    0.1521 H   0  0  0  0  0  0  0  0  0  0  0  0
   -1.0837   -2.6233    0.2113 H   0  0  0  0  0  0  0  0  0  0  0  0
   -3.0108   -0.5757   -1.5812 H   0  0  0  0  0  0  0  0  0  0  0  0
   -1.5092    0.1956   -2.1170 H   0  0  0  0  0  0  0  0  0  0  0  0
   -3.6044    1.6024   -1.3156 H   0  0  0  0  0  0  0  0  0  0  0  0
   -1.9459    2.1639   -1.0382 H   0  0  0  0  0  0  0  0  0  0  0  0
   -3.6928    0.8620    0.9831 H   0  0  0  0  0  0  0  0  0  0  0  0
   -1.7537    1.4541    2.4075 H   0  0  0  0  0  0  0  0  0  0  0  0
   -0.9182    1.8343    0.8077 H   0  0  0  0  0  0  0  0  0  0  0  0
   -2.2988   -0.7798    1.6558 H   0  0  0  0  0  0  0  0  0  0  0  0
   -0.5363   -0.5767    1.7804 H   0  0  0  0  0  0  0  0  0  0  0  0
    0.1870   -1.6239   -2.6136 H   0  0  0  0  0  0  0  0  0  0  0  0
    2.8107   -1.2681   -2.3894 H   0  0  0  0  0  0  0  0  0  0  0  0
  1  2  1  0
  2  3  1  0
  3  4  2  0
  4  5  2  0
  5  6  1  0
  6  7  1  0
  6  8  1  0
  8  9  1  0
  9 10  1  0
 10 11  1  0
 11 12  1  0
  5 13  1  0
 13 14  1  0
 14  3  1  0
 12  6  1  0
  1 15  1  0
  1 16  1  0
  1 17  1  0
  2 18  1  0
  2 19  1  0
  7 20  1  0
  8 21  1  0
  8 22  1  0
  9 23  1  0
  9 24  1  0
 10 25  1  0
 11 26  1  0
 11 27  1  0
 12 28  1  0
 12 29  1  0
 13 30  1  0
 14 31  1  0
M  CHG  1   3   1
M  END
$$$$
