
     RDKit          3D

 29 30  0  0  0  0  0  0  0  0999 V2000
   -2.5987    1.2653   -0.6057 C   0  0  0  0  0  0  0  0  0  0  0  0
   -2.5143    0.1691    0.3027 N   0  0  0  0  0  0  0  0  0  0  0  0
   -3.5164   -0.3185    1.1817 N   0  0  0  0  0  0  0  0  0  0  0  0
   -2.9115   -1.3956    1.8358 N   0  0  0  0  0  0  0  0  0  0  0  0
   -1.7023   -1.5138    1.3985 C   0  0  0  0  0  0  0  0  0  0  0  0
   -1.3674   -0.6493    0.4857 C   0  0  0  0  0  0  0  0  0  0  0  0
   -0.1365   -0.5209   -0.1997 N   0  0  0  0  0  0  0  0  0  0  0  0
    0.4331   -1.7814   -0.6117 C   0  0  0  0  0  0  0  0  0  0  0  0
    1.8743   -1.6503   -1.0376 C   0  0  0  0  0  0  0  0  0  0  0  0
    2.7231   -1.4055    0.0372 O   0  0  0  0  0  0  0  0  0  0  0  0
    2.2739   -0.3470    0.8287 C   0  0  0  0  0  0  0  0  0  0  0  0
    1.8851    0.8341   -0.0277 C   0  0  2  0  0  0  0  0  0  0  0  0
    2.1782    2.0620    0.7177 N   0  0  0  0  0  0  0  0  0  0  0  0
    0.4233    0.7862   -0.4215 C   0  0  0  0  0  0  0  0  0  0  0  0
   -3.6763    1.3443   -0.9256 H   0  0  0  0  0  0  0  0  0  0  0  0
   -2.3869    2.2585   -0.1202 H   0  0  0  0  0  0  0  0  0  0  0  0
   -2.0213    1.1442   -1.5291 H   0  0  0  0  0  0  0  0  0  0  0  0
   -4.4787    0.0769    1.2798 H   0  0  0  0  0  0  0  0  0  0  0  0
   -0.1386   -2.1744   -1.4644 H   0  0  0  0  0  0  0  0  0  0  0  0
    0.3712   -2.4656    0.2800 H   0  0  0  0  0  0  0  0  0  0  0  0
    2.1698   -2.6307   -1.4701 H   0  0  0  0  0  0  0  0  0  0  0  0
    1.9360   -0.9052   -1.8341 H   0  0  0  0  0  0  0  0  0  0  0  0
    3.1399   -0.0329    1.4699 H   0  0  0  0  0  0  0  0  0  0  0  0
    1.4329   -0.7118    1.4564 H   0  0  0  0  0  0  0  0  0  0  0  0
    2.5610    0.8419   -0.9022 H   0  0  0  0  0  0  0  0  0  0  0  0
    2.3706    2.8225    0.0131 H   0  0  0  0  0  0  0  0  0  0  0  0
    1.3680    2.3480    1.2896 H   0  0  0  0  0  0  0  0  0  0  0  0
   -0.0906    1.5880    0.1070 H   0  0  0  0  0  0  0  0  0  0  0  0
    0.3989    0.9615   -1.5340 H   0  0  0  0  0  0  0  0  0  0  0  0
  1  2  1  0
  2  3  1  0
  3  4  1  0
  4  5  2  0
  5  6  2  0
  6  7  1  0
  7  8  1  0
  8  9  1  0
  9 10  1  0
 10 11  1  0
 11 12  1  0
 12 13  1  0
 12 14  1  0
  6  2  1  0
 14  7  1  0
  1 15  1  0
  1 16  1  0
  1 17  1  0
  3 18  1  0
  8 19  1  0
  8 20  1  0
  9 21  1  0
  9 22  1  0
 11 23  1  0
 11 24  1  0
 12 25  1  6
 13 26  1  0
 13 27  1  0
 14 28  1  0
 14 29  1  0
M  END
$$$$

     RDKit          3D

 29 30  0  0  0  0  0  0  0  0999 V2000
    3.0965    0.9188   -0.7249 C   0  0  0  0  0  0  0  0  0  0  0  0
    2.4886    0.4964    0.5212 N   0  0  0  0  0  0  0  0  0  0  0  0
    3.0590    0.5064    1.7976 N   0  0  0  0  0  0  0  0  0  0  0  0
    2.0901    0.0059    2.6903 N   0  0  0  0  0  0  0  0  0  0  0  0
    1.0789   -0.2883    1.9717 C   0  0  0  0  0  0  0  0  0  0  0  0
    1.1750   -0.0192    0.7007 C   0  0  0  0  0  0  0  0  0  0  0  0
    0.1672   -0.2118   -0.2662 N   0  0  0  0  0  0  0  0  0  0  0  0
    0.0694   -1.5651   -0.7850 C   0  0  0  0  0  0  0  0  0  0  0  0
   -1.1786   -2.2217   -0.2380 C   0  0  0  0  0  0  0  0  0  0  0  0
   -2.2786   -1.4047   -0.2728 O   0  0  0  0  0  0  0  0  0  0  0  0
   -2.3207   -0.4310    0.6865 C   0  0  0  0  0  0  0  0  0  0  0  0
   -1.9399    0.9332    0.1270 C   0  0  2  0  0  0  0  0  0  0  0  0
   -3.0690    1.4505   -0.6453 N   0  0  0  0  0  0  0  0  0  0  0  0
   -0.6711    0.8952   -0.6669 C   0  0  0  0  0  0  0  0  0  0  0  0
    4.0605    1.4109   -0.4832 H   0  0  0  0  0  0  0  0  0  0  0  0
    2.4882    1.6402   -1.2867 H   0  0  0  0  0  0  0  0  0  0  0  0
    3.3183    0.0653   -1.3799 H   0  0  0  0  0  0  0  0  0  0  0  0
    4.0338    0.8303    2.0365 H   0  0  0  0  0  0  0  0  0  0  0  0
    0.9491   -2.1570   -0.5295 H   0  0  0  0  0  0  0  0  0  0  0  0
   -0.0285   -1.5012   -1.8727 H   0  0  0  0  0  0  0  0  0  0  0  0
   -0.9495   -2.6545    0.7401 H   0  0  0  0  0  0  0  0  0  0  0  0
   -1.3927   -3.0905   -0.9194 H   0  0  0  0  0  0  0  0  0  0  0  0
   -3.4028   -0.3232    0.9959 H   0  0  0  0  0  0  0  0  0  0  0  0
   -1.7784   -0.6689    1.6135 H   0  0  0  0  0  0  0  0  0  0  0  0
   -1.7962    1.6417    0.9652 H   0  0  0  0  0  0  0  0  0  0  0  0
   -2.7947    2.3495   -1.0750 H   0  0  0  0  0  0  0  0  0  0  0  0
   -3.4109    0.7741   -1.3485 H   0  0  0  0  0  0  0  0  0  0  0  0
   -0.1207    1.8416   -0.5991 H   0  0  0  0  0  0  0  0  0  0  0  0
   -0.9421    0.7772   -1.7531 H   0  0  0  0  0  0  0  0  0  0  0  0
  1  2  1  0
  2  3  1  0
  3  4  1  0
  4  5  2  0
  5  6  2  0
  6  7  1  0
  7  8  1  0
  8  9  1  0
  9 10  1  0
 10 11  1  0
 11 12  1  0
 12 13  1  0
 12 14  1  0
  6  2  1  0
 14  7  1  0
  1 15  1  0
  1 16  1  0
  1 17  1  0
  3 18  1  0
  8 19  1  0
  8 20  1  0
  9 21  1  0
  9 22  1  0
 11 23  1  0
 11 24  1  0
 12 25  1  1
 13 26  1  0
 13 27  1  0
 14 28  1  0
 14 29  1  0
M  END
$$$$

     RDKit          3D

 29 30  0  0  0  0  0  0  0  0999 V2000
    3.1266    0.4939   -0.7362 C   0  0  0  0  0  0  0  0  0  0  0  0
    2.5370   -0.1859    0.4121 N   0  0  0  0  0  0  0  0  0  0  0  0
    3.1747   -0.5507    1.5996 N   0  0  0  0  0  0  0  0  0  0  0  0
    2.1702   -1.1765    2.3800 N   0  0  0  0  0  0  0  0  0  0  0  0
    1.1576   -1.3581    1.6020 C   0  0  0  0  0  0  0  0  0  0  0  0
    1.1779   -0.6021    0.5171 C   0  0  0  0  0  0  0  0  0  0  0  0
    0.1046   -0.2739   -0.3490 N   0  0  0  0  0  0  0  0  0  0  0  0
   -0.3898   -1.3954   -1.1309 C   0  0  0  0  0  0  0  0  0  0  0  0
   -1.6599   -1.8586   -0.4044 C   0  0  0  0  0  0  0  0  0  0  0  0
   -2.5443   -0.7588   -0.4967 O   0  0  0  0  0  0  0  0  0  0  0  0
   -2.4164    0.0283    0.6178 C   0  0  0  0  0  0  0  0  0  0  0  0
   -1.6355    1.2913    0.3986 C   0  0  2  0  0  0  0  0  0  0  0  0
   -2.4656    2.2669   -0.2474 N   0  0  0  0  0  0  0  0  0  0  0  0
   -0.3625    1.0926   -0.3578 C   0  0  0  0  0  0  0  0  0  0  0  0
    2.9659    1.5860   -0.7057 H   0  0  0  0  0  0  0  0  0  0  0  0
    4.2345    0.3347   -0.7293 H   0  0  0  0  0  0  0  0  0  0  0  0
    2.7726    0.0407   -1.6864 H   0  0  0  0  0  0  0  0  0  0  0  0
    4.1769   -0.3894    1.8437 H   0  0  0  0  0  0  0  0  0  0  0  0
   -0.7272   -0.9824   -2.1061 H   0  0  0  0  0  0  0  0  0  0  0  0
    0.3387   -2.2012   -1.2435 H   0  0  0  0  0  0  0  0  0  0  0  0
   -2.0755   -2.7610   -0.8517 H   0  0  0  0  0  0  0  0  0  0  0  0
   -1.3617   -1.9673    0.6602 H   0  0  0  0  0  0  0  0  0  0  0  0
   -3.4537    0.3342    0.9277 H   0  0  0  0  0  0  0  0  0  0  0  0
   -2.0191   -0.5462    1.4873 H   0  0  0  0  0  0  0  0  0  0  0  0
   -1.3902    1.6994    1.4202 H   0  0  0  0  0  0  0  0  0  0  0  0
   -3.4044    1.9265   -0.5062 H   0  0  0  0  0  0  0  0  0  0  0  0
   -1.9828    2.7921   -1.0052 H   0  0  0  0  0  0  0  0  0  0  0  0
    0.4487    1.7126    0.0956 H   0  0  0  0  0  0  0  0  0  0  0  0
   -0.4970    1.4085   -1.4054 H   0  0  0  0  0  0  0  0  0  0  0  0
  1  2  1  0
  2  3  1  0
  3  4  1  0
  4  5  2  0
  5  6  2  0
  6  7  1  0
  7  8  1  0
  8  9  1  0
  9 10  1  0
 10 11  1  0
 11 12  1  0
 12 13  1  0
 12 14  1  0
  6  2  1  0
 14  7  1  0
  1 15  1  0
  1 16  1  0
  1 17  1  0
  3 18  1  0
  8 19  1  0
  8 20  1  0
  9 21  1  0
  9 22  1  0
 11 23  1  0
 11 24  1  0
 12 25  1  1
 13 26  1  0
 13 27  1  0
 14 28  1  0
 14 29  1  0
M  END
$$$$

     RDKit          3D

 29 30  0  0  0  0  0  0  0  0999 V2000
    2.8069    0.3768   -0.8486 C   0  0  0  0  0  0  0  0  0  0  0  0
    2.5577    0.1879    0.5551 N   0  0  0  0  0  0  0  0  0  0  0  0
    3.4767    0.2494    1.6010 N   0  0  0  0  0  0  0  0  0  0  0  0
    2.7365   -0.0036    2.7513 N   0  0  0  0  0  0  0  0  0  0  0  0
    1.5056   -0.1927    2.3973 C   0  0  0  0  0  0  0  0  0  0  0  0
    1.2748   -0.1048    1.1210 C   0  0  0  0  0  0  0  0  0  0  0  0
    0.0375   -0.2658    0.4788 N   0  0  0  0  0  0  0  0  0  0  0  0
   -0.2941   -1.6070    0.0828 C   0  0  0  0  0  0  0  0  0  0  0  0
   -1.7701   -1.9281    0.3189 C   0  0  0  0  0  0  0  0  0  0  0  0
   -2.5692   -1.5075   -0.7164 O   0  0  0  0  0  0  0  0  0  0  0  0
   -2.1639   -0.3003   -1.2820 C   0  0  0  0  0  0  0  0  0  0  0  0
   -2.0474    0.8028   -0.2883 C   0  0  2  0  0  0  0  0  0  0  0  0
   -2.3731    2.0619   -0.9618 N   0  0  0  0  0  0  0  0  0  0  0  0
   -0.6996    0.9577    0.3236 C   0  0  0  0  0  0  0  0  0  0  0  0
    2.8761    1.4479   -1.0889 H   0  0  0  0  0  0  0  0  0  0  0  0
    3.7806   -0.0952   -1.0915 H   0  0  0  0  0  0  0  0  0  0  0  0
    2.0166   -0.0846   -1.4629 H   0  0  0  0  0  0  0  0  0  0  0  0
    4.4827    0.4386    1.5517 H   0  0  0  0  0  0  0  0  0  0  0  0
   -0.0871   -1.8027   -0.9910 H   0  0  0  0  0  0  0  0  0  0  0  0
    0.2691   -2.3796    0.6506 H   0  0  0  0  0  0  0  0  0  0  0  0
   -1.8810   -3.0320    0.3995 H   0  0  0  0  0  0  0  0  0  0  0  0
   -2.0402   -1.4194    1.2631 H   0  0  0  0  0  0  0  0  0  0  0  0
   -1.2595   -0.4139   -1.9176 H   0  0  0  0  0  0  0  0  0  0  0  0
   -2.9889   -0.0117   -1.9980 H   0  0  0  0  0  0  0  0  0  0  0  0
   -2.8325    0.6593    0.4905 H   0  0  0  0  0  0  0  0  0  0  0  0
   -1.9311    2.8529   -0.4670 H   0  0  0  0  0  0  0  0  0  0  0  0
   -2.0437    2.0429   -1.9599 H   0  0  0  0  0  0  0  0  0  0  0  0
   -0.0358    1.6596   -0.2520 H   0  0  0  0  0  0  0  0  0  0  0  0
   -0.8037    1.4111    1.3409 H   0  0  0  0  0  0  0  0  0  0  0  0
  1  2  1  0
  2  3  1  0
  3  4  1  0
  4  5  2  0
  5  6  2  0
  6  7  1  0
  7  8  1  0
  8  9  1  0
  9 10  1  0
 10 11  1  0
 11 12  1  0
 12 13  1  0
 12 14  1  0
  6  2  1  0
 14  7  1  0
  1 15  1  0
  1 16  1  0
  1 17  1  0
  3 18  1  0
  8 19  1  0
  8 20  1  0
  9 21  1  0
  9 22  1  0
 11 23  1  0
 11 24  1  0
 12 25  1  1
 13 26  1  0
 13 27  1  0
 14 28  1  0
 14 29  1  0
M  END
$$$$

     RDKit          3D

 29 30  0  0  0  0  0  0  0  0999 V2000
   -3.0021    0.1708    1.2123 C   0  0  0  0  0  0  0  0  0  0  0  0
   -2.6440    0.0189   -0.1698 N   0  0  0  0  0  0  0  0  0  0  0  0
   -3.5135    0.0564   -1.2622 N   0  0  0  0  0  0  0  0  0  0  0  0
   -2.7480   -0.1360   -2.4398 N   0  0  0  0  0  0  0  0  0  0  0  0
   -1.5685   -0.4026   -2.0015 C   0  0  0  0  0  0  0  0  0  0  0  0
   -1.3459   -0.2018   -0.7506 C   0  0  0  0  0  0  0  0  0  0  0  0
   -0.1119   -0.1885   -0.0395 N   0  0  0  0  0  0  0  0  0  0  0  0
    0.3164   -1.5098    0.3663 C   0  0  0  0  0  0  0  0  0  0  0  0
    1.4423   -2.0485   -0.4604 C   0  0  0  0  0  0  0  0  0  0  0  0
    2.0837   -0.9933   -1.0935 O   0  0  0  0  0  0  0  0  0  0  0  0
    2.6275   -0.1868   -0.0950 C   0  0  0  0  0  0  0  0  0  0  0  0
    1.9460    1.1530   -0.1703 C   0  0  2  0  0  0  0  0  0  0  0  0
    2.6038    2.0195    0.8126 N   0  0  0  0  0  0  0  0  0  0  0  0
    0.4839    1.0937    0.1507 C   0  0  0  0  0  0  0  0  0  0  0  0
   -3.6104   -0.7124    1.5057 H   0  0  0  0  0  0  0  0  0  0  0  0
   -3.6392    1.0793    1.3783 H   0  0  0  0  0  0  0  0  0  0  0  0
   -2.0978    0.1788    1.8444 H   0  0  0  0  0  0  0  0  0  0  0  0
   -4.5510    0.2037   -1.1885 H   0  0  0  0  0  0  0  0  0  0  0  0
    0.6419   -1.4910    1.4445 H   0  0  0  0  0  0  0  0  0  0  0  0
   -0.5142   -2.2412    0.3247 H   0  0  0  0  0  0  0  0  0  0  0  0
    1.1040   -2.7694   -1.2329 H   0  0  0  0  0  0  0  0  0  0  0  0
    2.1792   -2.5760    0.1789 H   0  0  0  0  0  0  0  0  0  0  0  0
    3.7150    0.0003   -0.2890 H   0  0  0  0  0  0  0  0  0  0  0  0
    2.4614   -0.5963    0.9162 H   0  0  0  0  0  0  0  0  0  0  0  0
    2.1123    1.5643   -1.1943 H   0  0  0  0  0  0  0  0  0  0  0  0
    3.4170    2.5038    0.3721 H   0  0  0  0  0  0  0  0  0  0  0  0
    1.9238    2.7107    1.2082 H   0  0  0  0  0  0  0  0  0  0  0  0
   -0.0222    1.8447   -0.5180 H   0  0  0  0  0  0  0  0  0  0  0  0
    0.3105    1.4558    1.1905 H   0  0  0  0  0  0  0  0  0  0  0  0
  1  2  1  0
  2  3  1  0
  3  4  1  0
  4  5  2  0
  5  6  2  0
  6  7  1  0
  7  8  1  0
  8  9  1  0
  9 10  1  0
 10 11  1  0
 11 12  1  0
 12 13  1  0
 12 14  1  0
  6  2  1  0
 14  7  1  0
  1 15  1  0
  1 16  1  0
  1 17  1  0
  3 18  1  0
  8 19  1  0
  8 20  1  0
  9 21  1  0
  9 22  1  0
 11 23  1  0
 11 24  1  0
 12 25  1  6
 13 26  1  0
 13 27  1  0
 14 28  1  0
 14 29  1  0
M  END
$$$$

     RDKit          3D

 29 30  0  0  0  0  0  0  0  0999 V2000
    3.1229   -0.6511   -0.4914 C   0  0  0  0  0  0  0  0  0  0  0  0
    2.7256    0.4564    0.3557 N   0  0  0  0  0  0  0  0  0  0  0  0
    3.5486    1.3808    0.9998 N   0  0  0  0  0  0  0  0  0  0  0  0
    2.7028    2.2581    1.7000 N   0  0  0  0  0  0  0  0  0  0  0  0
    1.5017    1.9359    1.3622 C   0  0  0  0  0  0  0  0  0  0  0  0
    1.3936    0.8195    0.6993 C   0  0  0  0  0  0  0  0  0  0  0  0
    0.1789    0.1247    0.3941 N   0  0  0  0  0  0  0  0  0  0  0  0
    0.0977   -1.2730    0.7728 C   0  0  0  0  0  0  0  0  0  0  0  0
   -0.8297   -1.9574   -0.2099 C   0  0  0  0  0  0  0  0  0  0  0  0
   -2.1223   -1.8405    0.2277 O   0  0  0  0  0  0  0  0  0  0  0  0
   -2.7636   -0.6868   -0.1605 C   0  0  0  0  0  0  0  0  0  0  0  0
   -2.1598    0.5699    0.3868 C   0  0  2  0  0  0  0  0  0  0  0  0
   -3.0649    1.6747    0.1489 N   0  0  0  0  0  0  0  0  0  0  0  0
   -0.8404    0.9159   -0.2678 C   0  0  0  0  0  0  0  0  0  0  0  0
    4.0412   -0.3597   -1.0620 H   0  0  0  0  0  0  0  0  0  0  0  0
    2.3407   -0.9349   -1.2134 H   0  0  0  0  0  0  0  0  0  0  0  0
    3.3651   -1.5582    0.1016 H   0  0  0  0  0  0  0  0  0  0  0  0
    4.5851    1.4098    0.9647 H   0  0  0  0  0  0  0  0  0  0  0  0
   -0.3978   -1.2876    1.7878 H   0  0  0  0  0  0  0  0  0  0  0  0
    1.0839   -1.7655    0.8227 H   0  0  0  0  0  0  0  0  0  0  0  0
   -0.5437   -3.0461   -0.2105 H   0  0  0  0  0  0  0  0  0  0  0  0
   -0.6756   -1.5177   -1.2308 H   0  0  0  0  0  0  0  0  0  0  0  0
   -2.8715   -0.5782   -1.2580 H   0  0  0  0  0  0  0  0  0  0  0  0
   -3.8087   -0.7459    0.2364 H   0  0  0  0  0  0  0  0  0  0  0  0
   -2.0113    0.4343    1.4816 H   0  0  0  0  0  0  0  0  0  0  0  0
   -3.0458    2.3071    0.9784 H   0  0  0  0  0  0  0  0  0  0  0  0
   -4.0301    1.3311   -0.0676 H   0  0  0  0  0  0  0  0  0  0  0  0
   -0.6282    1.9830   -0.1792 H   0  0  0  0  0  0  0  0  0  0  0  0
   -0.8943    0.6013   -1.3505 H   0  0  0  0  0  0  0  0  0  0  0  0
  1  2  1  0
  2  3  1  0
  3  4  1  0
  4  5  2  0
  5  6  2  0
  6  7  1  0
  7  8  1  0
  8  9  1  0
  9 10  1  0
 10 11  1  0
 11 12  1  0
 12 13  1  0
 12 14  1  0
  6  2  1  0
 14  7  1  0
  1 15  1  0
  1 16  1  0
  1 17  1  0
  3 18  1  0
  8 19  1  0
  8 20  1  0
  9 21  1  0
  9 22  1  0
 11 23  1  0
 11 24  1  0
 12 25  1  1
 13 26  1  0
 13 27  1  0
 14 28  1  0
 14 29  1  0
M  END
$$$$

     RDKit          3D

 29 30  0  0  0  0  0  0  0  0999 V2000
    3.1845    0.7727    0.4118 C   0  0  0  0  0  0  0  0  0  0  0  0
    2.7135   -0.5083   -0.0925 N   0  0  0  0  0  0  0  0  0  0  0  0
    3.4462   -1.6660   -0.3477 N   0  0  0  0  0  0  0  0  0  0  0  0
    2.5313   -2.6015   -0.8148 N   0  0  0  0  0  0  0  0  0  0  0  0
    1.3722   -2.0252   -0.8250 C   0  0  0  0  0  0  0  0  0  0  0  0
    1.3515   -0.7892   -0.4209 C   0  0  0  0  0  0  0  0  0  0  0  0
    0.1998    0.0218   -0.3528 N   0  0  0  0  0  0  0  0  0  0  0  0
   -0.2226    0.7493   -1.5269 C   0  0  0  0  0  0  0  0  0  0  0  0
   -1.7270    0.7458   -1.6970 C   0  0  0  0  0  0  0  0  0  0  0  0
   -2.3893    1.5248   -0.8010 O   0  0  0  0  0  0  0  0  0  0  0  0
   -2.6214    1.0172    0.4300 C   0  0  0  0  0  0  0  0  0  0  0  0
   -1.9337   -0.2622    0.7639 C   0  0  2  0  0  0  0  0  0  0  0  0
   -2.4103   -0.6802    2.0916 N   0  0  0  0  0  0  0  0  0  0  0  0
   -0.4559    0.0360    0.9339 C   0  0  0  0  0  0  0  0  0  0  0  0
    3.1381    0.7818    1.5315 H   0  0  0  0  0  0  0  0  0  0  0  0
    2.5797    1.5769   -0.0397 H   0  0  0  0  0  0  0  0  0  0  0  0
    4.2269    0.8902    0.0413 H   0  0  0  0  0  0  0  0  0  0  0  0
    4.4519   -1.8089   -0.2208 H   0  0  0  0  0  0  0  0  0  0  0  0
    0.1326    1.7783   -1.5721 H   0  0  0  0  0  0  0  0  0  0  0  0
    0.1955    0.2028   -2.4108 H   0  0  0  0  0  0  0  0  0  0  0  0
   -2.1248   -0.2966   -1.7905 H   0  0  0  0  0  0  0  0  0  0  0  0
   -1.9079    1.1929   -2.7210 H   0  0  0  0  0  0  0  0  0  0  0  0
   -2.2812    1.7796    1.1905 H   0  0  0  0  0  0  0  0  0  0  0  0
   -3.7174    0.8853    0.6648 H   0  0  0  0  0  0  0  0  0  0  0  0
   -2.1357   -1.0895    0.0914 H   0  0  0  0  0  0  0  0  0  0  0  0
   -1.7942   -1.4504    2.4396 H   0  0  0  0  0  0  0  0  0  0  0  0
   -3.3859   -1.0541    2.0394 H   0  0  0  0  0  0  0  0  0  0  0  0
   -0.0419   -0.7538    1.5923 H   0  0  0  0  0  0  0  0  0  0  0  0
   -0.3744    1.0306    1.4117 H   0  0  0  0  0  0  0  0  0  0  0  0
  1  2  1  0
  2  3  1  0
  3  4  1  0
  4  5  2  0
  5  6  2  0
  6  7  1  0
  7  8  1  0
  8  9  1  0
  9 10  1  0
 10 11  1  0
 11 12  1  0
 12 13  1  0
 12 14  1  0
  6  2  1  0
 14  7  1  0
  1 15  1  0
  1 16  1  0
  1 17  1  0
  3 18  1  0
  8 19  1  0
  8 20  1  0
  9 21  1  0
  9 22  1  0
 11 23  1  0
 11 24  1  0
 12 25  1  6
 13 26  1  0
 13 27  1  0
 14 28  1  0
 14 29  1  0
M  END
$$$$

     RDKit          3D

 29 30  0  0  0  0  0  0  0  0999 V2000
    2.4859    0.1039    1.1977 C   0  0  0  0  0  0  0  0  0  0  0  0
    2.4730    0.3678   -0.2105 N   0  0  0  0  0  0  0  0  0  0  0  0
    3.5209    0.7160   -1.0819 N   0  0  0  0  0  0  0  0  0  0  0  0
    2.9600    0.8595   -2.3606 N   0  0  0  0  0  0  0  0  0  0  0  0
    1.7002    0.8550   -2.1736 C   0  0  0  0  0  0  0  0  0  0  0  0
    1.3108    0.3189   -1.0292 C   0  0  0  0  0  0  0  0  0  0  0  0
    0.0117   -0.1822   -0.7249 N   0  0  0  0  0  0  0  0  0  0  0  0
   -0.0276   -1.5885   -0.5612 C   0  0  0  0  0  0  0  0  0  0  0  0
   -1.2637   -2.1721   -0.0124 C   0  0  0  0  0  0  0  0  0  0  0  0
   -1.8494   -1.5143    1.0252 O   0  0  0  0  0  0  0  0  0  0  0  0
   -2.5897   -0.3978    0.6504 C   0  0  0  0  0  0  0  0  0  0  0  0
   -1.6167    0.7753    0.7240 C   0  0  2  0  0  0  0  0  0  0  0  0
   -2.2870    1.9948    1.1053 N   0  0  0  0  0  0  0  0  0  0  0  0
   -0.9862    0.8670   -0.6506 C   0  0  0  0  0  0  0  0  0  0  0  0
    2.6243   -0.9773    1.4002 H   0  0  0  0  0  0  0  0  0  0  0  0
    1.5885    0.4919    1.7076 H   0  0  0  0  0  0  0  0  0  0  0  0
    3.3526    0.6505    1.6637 H   0  0  0  0  0  0  0  0  0  0  0  0
    4.4999    0.8268   -0.7606 H   0  0  0  0  0  0  0  0  0  0  0  0
    0.1559   -2.0522   -1.5750 H   0  0  0  0  0  0  0  0  0  0  0  0
    0.8729   -1.8989    0.0380 H   0  0  0  0  0  0  0  0  0  0  0  0
   -1.0223   -3.2138    0.3561 H   0  0  0  0  0  0  0  0  0  0  0  0
   -2.0516   -2.3510   -0.7996 H   0  0  0  0  0  0  0  0  0  0  0  0
   -3.4252   -0.1806    1.3367 H   0  0  0  0  0  0  0  0  0  0  0  0
   -2.9698   -0.5113   -0.3936 H   0  0  0  0  0  0  0  0  0  0  0  0
   -0.7951    0.5812    1.4439 H   0  0  0  0  0  0  0  0  0  0  0  0
   -2.7343    2.4597    0.2928 H   0  0  0  0  0  0  0  0  0  0  0  0
   -1.6134    2.5971    1.6234 H   0  0  0  0  0  0  0  0  0  0  0  0
   -0.5705    1.8597   -0.7886 H   0  0  0  0  0  0  0  0  0  0  0  0
   -1.7541    0.7147   -1.4424 H   0  0  0  0  0  0  0  0  0  0  0  0
  1  2  1  0
  2  3  1  0
  3  4  1  0
  4  5  2  0
  5  6  2  0
  6  7  1  0
  7  8  1  0
  8  9  1  0
  9 10  1  0
 10 11  1  0
 11 12  1  0
 12 13  1  0
 12 14  1  0
  6  2  1  0
 14  7  1  0
  1 15  1  0
  1 16  1  0
  1 17  1  0
  3 18  1  0
  8 19  1  0
  8 20  1  0
  9 21  1  0
  9 22  1  0
 11 23  1  0
 11 24  1  0
 12 25  1  1
 13 26  1  0
 13 27  1  0
 14 28  1  0
 14 29  1  0
M  END
$$$$
