
     RDKit          3D

 28 29  0  0  0  0  0  0  0  0999 V2000
    2.5272    1.3330   -1.5192 O   0  0  0  0  0  0  0  0  0  0  0  0
    2.3754    0.5913   -0.5182 C   0  0  0  0  0  0  0  0  0  0  0  0
    3.5803    0.2476    0.2747 C   0  0  0  0  0  0  0  0  0  0  0  0
    4.7025    0.8506   -0.2814 O   0  0  0  0  0  0  0  0  0  0  0  0
    1.0842    0.1323   -0.2076 N   0  0  0  0  0  0  0  0  0  0  0  0
    0.9361   -0.7228    0.9535 C   0  0  0  0  0  0  0  0  0  0  0  0
   -0.3758   -1.4679    0.9345 C   0  0  0  0  0  0  0  0  0  0  0  0
   -1.4786   -0.6037    0.5372 N   0  0  0  0  0  0  0  0  0  0  0  0
   -2.8818   -0.7745    0.6748 C   0  0  0  0  0  0  0  0  0  0  0  0
   -3.4940   -1.4571    1.5685 O   0  0  0  0  0  0  0  0  0  0  0  0
   -3.5110   -0.0021   -0.4274 C   0  0  0  0  0  0  0  0  0  0  0  0
   -2.4928    1.0531   -0.8038 C   0  0  0  0  0  0  0  0  0  0  0  0
   -1.2285    0.6687   -0.1107 C   0  0  2  0  0  0  0  0  0  0  0  0
   -0.0486    0.5100   -1.0295 C   0  0  0  0  0  0  0  0  0  0  0  0
    3.7712   -0.8446    0.2970 H   0  0  0  0  0  0  0  0  0  0  0  0
    3.5004    0.6281    1.3216 H   0  0  0  0  0  0  0  0  0  0  0  0
    5.4540    0.2163   -0.3995 H   0  0  0  0  0  0  0  0  0  0  0  0
    1.0449   -0.1453    1.8942 H   0  0  0  0  0  0  0  0  0  0  0  0
    1.7561   -1.4677    0.9023 H   0  0  0  0  0  0  0  0  0  0  0  0
   -0.2782   -2.3661    0.2987 H   0  0  0  0  0  0  0  0  0  0  0  0
   -0.5556   -1.8300    1.9699 H   0  0  0  0  0  0  0  0  0  0  0  0
   -4.4791    0.4443   -0.1243 H   0  0  0  0  0  0  0  0  0  0  0  0
   -3.7132   -0.6763   -1.3069 H   0  0  0  0  0  0  0  0  0  0  0  0
   -2.3428    1.0762   -1.9079 H   0  0  0  0  0  0  0  0  0  0  0  0
   -2.7978    2.0592   -0.4233 H   0  0  0  0  0  0  0  0  0  0  0  0
   -0.9735    1.3840    0.7166 H   0  0  0  0  0  0  0  0  0  0  0  0
   -0.2340   -0.3185   -1.7348 H   0  0  0  0  0  0  0  0  0  0  0  0
    0.1528    1.4820   -1.5490 H   0  0  0  0  0  0  0  0  0  0  0  0
  1  2  2  0
  2  3  1  0
  3  4  1  0
  2  5  1  0
  5  6  1  0
  6  7  1  0
  7  8  1  0
  8  9  1  0
  9 10  2  0
  9 11  1  0
 11 12  1  0
 12 13  1  0
 13 14  1  0
 14  5  1  0
 13  8  1  0
  3 15  1  0
  3 16  1  0
  4 17  1  0
  6 18  1  0
  6 19  1  0
  7 20  1  0
  7 21  1  0
 11 22  1  0
 11 23  1  0
 12 24  1  0
 12 25  1  0
 13 26  1  1
 14 27  1  0
 14 28  1  0
M  END
$$$$

     RDKit          3D

 28 29  0  0  0  0  0  0  0  0999 V2000
    3.3065    0.0825    1.3545 O   0  0  0  0  0  0  0  0  0  0  0  0
    2.5658   -0.0639    0.3589 C   0  0  0  0  0  0  0  0  0  0  0  0
    3.1383   -0.5616   -0.9322 C   0  0  0  0  0  0  0  0  0  0  0  0
    4.4986   -0.7842   -0.7617 O   0  0  0  0  0  0  0  0  0  0  0  0
    1.1742    0.2371    0.4319 N   0  0  0  0  0  0  0  0  0  0  0  0
    0.6349    0.7133    1.6728 C   0  0  0  0  0  0  0  0  0  0  0  0
   -0.7419    0.1960    1.9692 C   0  0  0  0  0  0  0  0  0  0  0  0
   -1.5155    0.0341    0.7536 N   0  0  0  0  0  0  0  0  0  0  0  0
   -2.7233   -0.6561    0.4630 C   0  0  0  0  0  0  0  0  0  0  0  0
   -3.2087   -1.6206    1.1325 O   0  0  0  0  0  0  0  0  0  0  0  0
   -3.2642   -0.0130   -0.7567 C   0  0  0  0  0  0  0  0  0  0  0  0
   -1.9968    0.2616   -1.5430 C   0  0  0  0  0  0  0  0  0  0  0  0
   -1.0125    0.6775   -0.4452 C   0  0  2  0  0  0  0  0  0  0  0  0
    0.3309    0.0569   -0.7473 C   0  0  0  0  0  0  0  0  0  0  0  0
    2.6506   -1.5198   -1.2348 H   0  0  0  0  0  0  0  0  0  0  0  0
    3.0036    0.1925   -1.7497 H   0  0  0  0  0  0  0  0  0  0  0  0
    4.6593   -1.6415   -0.3252 H   0  0  0  0  0  0  0  0  0  0  0  0
    0.5736    1.8295    1.6431 H   0  0  0  0  0  0  0  0  0  0  0  0
    1.3223    0.4460    2.5123 H   0  0  0  0  0  0  0  0  0  0  0  0
   -1.2422    0.8944    2.6702 H   0  0  0  0  0  0  0  0  0  0  0  0
   -0.6778   -0.7952    2.4721 H   0  0  0  0  0  0  0  0  0  0  0  0
   -3.6593    0.9762   -0.4484 H   0  0  0  0  0  0  0  0  0  0  0  0
   -3.9811   -0.6281   -1.2976 H   0  0  0  0  0  0  0  0  0  0  0  0
   -1.6211   -0.6477   -2.0638 H   0  0  0  0  0  0  0  0  0  0  0  0
   -2.1858    1.0943   -2.2445 H   0  0  0  0  0  0  0  0  0  0  0  0
   -0.9679    1.7745   -0.3516 H   0  0  0  0  0  0  0  0  0  0  0  0
    0.7796    0.5023   -1.6515 H   0  0  0  0  0  0  0  0  0  0  0  0
    0.1598   -1.0372   -0.8810 H   0  0  0  0  0  0  0  0  0  0  0  0
  1  2  2  0
  2  3  1  0
  3  4  1  0
  2  5  1  0
  5  6  1  0
  6  7  1  0
  7  8  1  0
  8  9  1  0
  9 10  2  0
  9 11  1  0
 11 12  1  0
 12 13  1  0
 13 14  1  0
 14  5  1  0
 13  8  1  0
  3 15  1  0
  3 16  1  0
  4 17  1  0
  6 18  1  0
  6 19  1  0
  7 20  1  0
  7 21  1  0
 11 22  1  0
 11 23  1  0
 12 24  1  0
 12 25  1  0
 13 26  1  1
 14 27  1  0
 14 28  1  0
M  END
$$$$

     RDKit          3D

 28 29  0  0  0  0  0  0  0  0999 V2000
    3.3449   -1.1889    0.6354 O   0  0  0  0  0  0  0  0  0  0  0  0
    2.5788   -0.2091    0.3877 C   0  0  0  0  0  0  0  0  0  0  0  0
    3.1650    1.1106    0.0546 C   0  0  0  0  0  0  0  0  0  0  0  0
    4.5487    1.0181    0.0783 O   0  0  0  0  0  0  0  0  0  0  0  0
    1.1846   -0.3548    0.4241 N   0  0  0  0  0  0  0  0  0  0  0  0
    0.6180   -1.6390    0.7483 C   0  0  0  0  0  0  0  0  0  0  0  0
   -0.4844   -1.8900   -0.2593 C   0  0  0  0  0  0  0  0  0  0  0  0
   -1.4576   -0.8349   -0.1184 N   0  0  0  0  0  0  0  0  0  0  0  0
   -2.8208   -0.7681   -0.5258 C   0  0  0  0  0  0  0  0  0  0  0  0
   -3.4508   -1.6988   -1.0935 O   0  0  0  0  0  0  0  0  0  0  0  0
   -3.3295    0.5636   -0.1621 C   0  0  0  0  0  0  0  0  0  0  0  0
   -2.0783    1.4329    0.0082 C   0  0  0  0  0  0  0  0  0  0  0  0
   -1.1007    0.4075    0.5267 C   0  0  2  0  0  0  0  0  0  0  0  0
    0.3252    0.7613    0.1419 C   0  0  0  0  0  0  0  0  0  0  0  0
    2.8414    1.8514    0.8325 H   0  0  0  0  0  0  0  0  0  0  0  0
    2.7785    1.3863   -0.9501 H   0  0  0  0  0  0  0  0  0  0  0  0
    4.7948    0.3286    0.7472 H   0  0  0  0  0  0  0  0  0  0  0  0
    0.1582   -1.5809    1.7786 H   0  0  0  0  0  0  0  0  0  0  0  0
    1.3698   -2.4528    0.7461 H   0  0  0  0  0  0  0  0  0  0  0  0
   -0.9202   -2.9019   -0.1583 H   0  0  0  0  0  0  0  0  0  0  0  0
   -0.0312   -1.7545   -1.2852 H   0  0  0  0  0  0  0  0  0  0  0  0
   -3.8839    0.4705    0.7969 H   0  0  0  0  0  0  0  0  0  0  0  0
   -3.9764    0.9800   -0.9610 H   0  0  0  0  0  0  0  0  0  0  0  0
   -2.2802    2.1909    0.7830 H   0  0  0  0  0  0  0  0  0  0  0  0
   -1.7777    1.8398   -0.9616 H   0  0  0  0  0  0  0  0  0  0  0  0
   -1.1192    0.3273    1.6295 H   0  0  0  0  0  0  0  0  0  0  0  0
    0.6476    1.6482    0.7087 H   0  0  0  0  0  0  0  0  0  0  0  0
    0.3552    0.9569   -0.9541 H   0  0  0  0  0  0  0  0  0  0  0  0
  1  2  2  0
  2  3  1  0
  3  4  1  0
  2  5  1  0
  5  6  1  0
  6  7  1  0
  7  8  1  0
  8  9  1  0
  9 10  2  0
  9 11  1  0
 11 12  1  0
 12 13  1  0
 13 14  1  0
 14  5  1  0
 13  8  1  0
  3 15  1  0
  3 16  1  0
  4 17  1  0
  6 18  1  0
  6 19  1  0
  7 20  1  0
  7 21  1  0
 11 22  1  0
 11 23  1  0
 12 24  1  0
 12 25  1  0
 13 26  1  1
 14 27  1  0
 14 28  1  0
M  END
$$$$

     RDKit          3D

 28 29  0  0  0  0  0  0  0  0999 V2000
    3.1857   -1.2661   -0.8219 O   0  0  0  0  0  0  0  0  0  0  0  0
    2.4404   -0.2600   -0.5769 C   0  0  0  0  0  0  0  0  0  0  0  0
    2.9524    1.0435   -0.9566 C   0  0  0  0  0  0  0  0  0  0  0  0
    2.1060    2.0952   -0.7049 O   0  0  0  0  0  0  0  0  0  0  0  0
    1.1939   -0.5079    0.0370 N   0  0  0  0  0  0  0  0  0  0  0  0
    0.8302   -1.8772    0.3369 C   0  0  0  0  0  0  0  0  0  0  0  0
   -0.6250   -2.1559    0.0086 C   0  0  0  0  0  0  0  0  0  0  0  0
   -1.3900   -0.9383    0.0482 N   0  0  0  0  0  0  0  0  0  0  0  0
   -2.5121   -0.4471   -0.6187 C   0  0  0  0  0  0  0  0  0  0  0  0
   -3.2893   -1.0900   -1.3677 O   0  0  0  0  0  0  0  0  0  0  0  0
   -2.6614    1.0259   -0.2963 C   0  0  0  0  0  0  0  0  0  0  0  0
   -2.0238    1.0499    1.0736 C   0  0  0  0  0  0  0  0  0  0  0  0
   -0.9301    0.0593    0.9735 C   0  0  2  0  0  0  0  0  0  0  0  0
    0.3474    0.6285    0.3340 C   0  0  0  0  0  0  0  0  0  0  0  0
    3.9273    1.2265   -0.4221 H   0  0  0  0  0  0  0  0  0  0  0  0
    3.2228    1.0423   -2.0382 H   0  0  0  0  0  0  0  0  0  0  0  0
    2.5242    2.8124   -0.1672 H   0  0  0  0  0  0  0  0  0  0  0  0
    1.4529   -2.5422   -0.2836 H   0  0  0  0  0  0  0  0  0  0  0  0
    1.0689   -2.0731    1.3939 H   0  0  0  0  0  0  0  0  0  0  0  0
   -0.7256   -2.6927   -0.9570 H   0  0  0  0  0  0  0  0  0  0  0  0
   -1.0283   -2.8273    0.7985 H   0  0  0  0  0  0  0  0  0  0  0  0
   -2.0803    1.6425   -0.9954 H   0  0  0  0  0  0  0  0  0  0  0  0
   -3.7128    1.3283   -0.2969 H   0  0  0  0  0  0  0  0  0  0  0  0
   -2.7807    0.6600    1.7835 H   0  0  0  0  0  0  0  0  0  0  0  0
   -1.6857    2.0675    1.3593 H   0  0  0  0  0  0  0  0  0  0  0  0
   -0.6696   -0.4103    1.9604 H   0  0  0  0  0  0  0  0  0  0  0  0
    0.0314    1.0654   -0.6330 H   0  0  0  0  0  0  0  0  0  0  0  0
    0.8311    1.3405    1.0291 H   0  0  0  0  0  0  0  0  0  0  0  0
  1  2  2  0
  2  3  1  0
  3  4  1  0
  2  5  1  0
  5  6  1  0
  6  7  1  0
  7  8  1  0
  8  9  1  0
  9 10  2  0
  9 11  1  0
 11 12  1  0
 12 13  1  0
 13 14  1  0
 14  5  1  0
 13  8  1  0
  3 15  1  0
  3 16  1  0
  4 17  1  0
  6 18  1  0
  6 19  1  0
  7 20  1  0
  7 21  1  0
 11 22  1  0
 11 23  1  0
 12 24  1  0
 12 25  1  0
 13 26  1  1
 14 27  1  0
 14 28  1  0
M  END
$$$$

     RDKit          3D

 28 29  0  0  0  0  0  0  0  0999 V2000
    3.4721   -1.0097   -0.0715 O   0  0  0  0  0  0  0  0  0  0  0  0
    2.6285   -0.1127    0.1900 C   0  0  0  0  0  0  0  0  0  0  0  0
    3.1224    1.0924    0.8579 C   0  0  0  0  0  0  0  0  0  0  0  0
    4.4746    1.0095    1.0815 O   0  0  0  0  0  0  0  0  0  0  0  0
    1.2397   -0.2882   -0.1634 N   0  0  0  0  0  0  0  0  0  0  0  0
    0.8685   -1.5005   -0.8107 C   0  0  0  0  0  0  0  0  0  0  0  0
   -0.5125   -1.5133   -1.3793 C   0  0  0  0  0  0  0  0  0  0  0  0
   -1.4683   -0.8111   -0.5502 N   0  0  0  0  0  0  0  0  0  0  0  0
   -2.8883   -0.8579   -0.5313 C   0  0  0  0  0  0  0  0  0  0  0  0
   -3.6173   -1.8572   -0.8592 O   0  0  0  0  0  0  0  0  0  0  0  0
   -3.3782    0.4646   -0.0613 C   0  0  0  0  0  0  0  0  0  0  0  0
   -2.1551    1.1235    0.5092 C   0  0  0  0  0  0  0  0  0  0  0  0
   -1.0474    0.1102    0.4570 C   0  0  2  0  0  0  0  0  0  0  0  0
    0.2924    0.7397    0.1396 C   0  0  0  0  0  0  0  0  0  0  0  0
    2.9741    1.9452    0.1309 H   0  0  0  0  0  0  0  0  0  0  0  0
    2.5406    1.3836    1.7508 H   0  0  0  0  0  0  0  0  0  0  0  0
    4.6849    0.6497    1.9942 H   0  0  0  0  0  0  0  0  0  0  0  0
    1.6061   -1.6850   -1.6387 H   0  0  0  0  0  0  0  0  0  0  0  0
    1.0197   -2.3373   -0.0987 H   0  0  0  0  0  0  0  0  0  0  0  0
   -0.4626   -1.1477   -2.4218 H   0  0  0  0  0  0  0  0  0  0  0  0
   -0.8572   -2.5677   -1.4342 H   0  0  0  0  0  0  0  0  0  0  0  0
   -4.1882    0.3683    0.6828 H   0  0  0  0  0  0  0  0  0  0  0  0
   -3.7857    1.0142   -0.9561 H   0  0  0  0  0  0  0  0  0  0  0  0
   -1.8931    2.0170   -0.0952 H   0  0  0  0  0  0  0  0  0  0  0  0
   -2.3484    1.4418    1.5609 H   0  0  0  0  0  0  0  0  0  0  0  0
   -1.0155   -0.4264    1.4277 H   0  0  0  0  0  0  0  0  0  0  0  0
    0.5659    1.3444    1.0321 H   0  0  0  0  0  0  0  0  0  0  0  0
    0.1280    1.4106   -0.7431 H   0  0  0  0  0  0  0  0  0  0  0  0
  1  2  2  0
  2  3  1  0
  3  4  1  0
  2  5  1  0
  5  6  1  0
  6  7  1  0
  7  8  1  0
  8  9  1  0
  9 10  2  0
  9 11  1  0
 11 12  1  0
 12 13  1  0
 13 14  1  0
 14  5  1  0
 13  8  1  0
  3 15  1  0
  3 16  1  0
  4 17  1  0
  6 18  1  0
  6 19  1  0
  7 20  1  0
  7 21  1  0
 11 22  1  0
 11 23  1  0
 12 24  1  0
 12 25  1  0
 13 26  1  1
 14 27  1  0
 14 28  1  0
M  END
$$$$

     RDKit          3D

 28 29  0  0  0  0  0  0  0  0999 V2000
    3.3652   -1.1974   -0.7297 O   0  0  0  0  0  0  0  0  0  0  0  0
    2.6029   -0.3320   -0.1593 C   0  0  0  0  0  0  0  0  0  0  0  0
    3.3158    0.8857    0.2781 C   0  0  0  0  0  0  0  0  0  0  0  0
    2.4823    1.8072    0.8905 O   0  0  0  0  0  0  0  0  0  0  0  0
    1.2281   -0.5895   -0.0014 N   0  0  0  0  0  0  0  0  0  0  0  0
    0.7212   -1.8603   -0.5060 C   0  0  0  0  0  0  0  0  0  0  0  0
   -0.6806   -1.8096   -0.9861 C   0  0  0  0  0  0  0  0  0  0  0  0
   -1.4587   -0.6890   -0.5134 N   0  0  0  0  0  0  0  0  0  0  0  0
   -2.6080   -0.0462   -1.0456 C   0  0  0  0  0  0  0  0  0  0  0  0
   -3.0207   -0.1813   -2.2168 O   0  0  0  0  0  0  0  0  0  0  0  0
   -3.1523    0.7674    0.0661 C   0  0  0  0  0  0  0  0  0  0  0  0
   -1.8829    1.2060    0.7513 C   0  0  0  0  0  0  0  0  0  0  0  0
   -1.0516   -0.0575    0.7247 C   0  0  2  0  0  0  0  0  0  0  0  0
    0.3977    0.3837    0.6344 C   0  0  0  0  0  0  0  0  0  0  0  0
    4.0502    0.5742    1.0634 H   0  0  0  0  0  0  0  0  0  0  0  0
    3.8550    1.3422   -0.5785 H   0  0  0  0  0  0  0  0  0  0  0  0
    2.6022    2.7153    0.5220 H   0  0  0  0  0  0  0  0  0  0  0  0
    0.8051   -2.6008    0.3364 H   0  0  0  0  0  0  0  0  0  0  0  0
    1.3728   -2.2321   -1.3073 H   0  0  0  0  0  0  0  0  0  0  0  0
   -0.6833   -1.7767   -2.1119 H   0  0  0  0  0  0  0  0  0  0  0  0
   -1.2158   -2.7554   -0.7005 H   0  0  0  0  0  0  0  0  0  0  0  0
   -3.7677    0.1183    0.7293 H   0  0  0  0  0  0  0  0  0  0  0  0
   -3.7459    1.6325   -0.2965 H   0  0  0  0  0  0  0  0  0  0  0  0
   -2.0519    1.5880    1.7719 H   0  0  0  0  0  0  0  0  0  0  0  0
   -1.3852    1.9417    0.0886 H   0  0  0  0  0  0  0  0  0  0  0  0
   -1.2356   -0.6940    1.6038 H   0  0  0  0  0  0  0  0  0  0  0  0
    0.4135    1.3141    0.0147 H   0  0  0  0  0  0  0  0  0  0  0  0
    0.7281    0.5457    1.6778 H   0  0  0  0  0  0  0  0  0  0  0  0
  1  2  2  0
  2  3  1  0
  3  4  1  0
  2  5  1  0
  5  6  1  0
  6  7  1  0
  7  8  1  0
  8  9  1  0
  9 10  2  0
  9 11  1  0
 11 12  1  0
 12 13  1  0
 13 14  1  0
 14  5  1  0
 13  8  1  0
  3 15  1  0
  3 16  1  0
  4 17  1  0
  6 18  1  0
  6 19  1  0
  7 20  1  0
  7 21  1  0
 11 22  1  0
 11 23  1  0
 12 24  1  0
 12 25  1  0
 13 26  1  1
 14 27  1  0
 14 28  1  0
M  END
$$$$

     RDKit          3D

 28 29  0  0  0  0  0  0  0  0999 V2000
    3.2350    1.3586    0.6380 O   0  0  0  0  0  0  0  0  0  0  0  0
    2.5288    0.4188    0.1247 C   0  0  0  0  0  0  0  0  0  0  0  0
    3.2170   -0.5252   -0.7782 C   0  0  0  0  0  0  0  0  0  0  0  0
    4.5488   -0.1647   -0.8753 O   0  0  0  0  0  0  0  0  0  0  0  0
    1.1563    0.3286    0.4369 N   0  0  0  0  0  0  0  0  0  0  0  0
    0.5431    1.2716    1.3182 C   0  0  0  0  0  0  0  0  0  0  0  0
   -0.8244    0.7873    1.8061 C   0  0  0  0  0  0  0  0  0  0  0  0
   -1.5915    0.3654    0.6505 N   0  0  0  0  0  0  0  0  0  0  0  0
   -2.9902    0.2906    0.3634 C   0  0  0  0  0  0  0  0  0  0  0  0
   -3.8673    0.9290    0.9898 O   0  0  0  0  0  0  0  0  0  0  0  0
   -3.2022   -0.6401   -0.7622 C   0  0  0  0  0  0  0  0  0  0  0  0
   -1.8481   -1.0466   -1.2371 C   0  0  0  0  0  0  0  0  0  0  0  0
   -0.9312   -0.1062   -0.5463 C   0  0  2  0  0  0  0  0  0  0  0  0
    0.3938   -0.7328   -0.1524 C   0  0  0  0  0  0  0  0  0  0  0  0
    2.7128   -0.4689   -1.7810 H   0  0  0  0  0  0  0  0  0  0  0  0
    3.0731   -1.5559   -0.4160 H   0  0  0  0  0  0  0  0  0  0  0  0
    4.6407    0.8223   -0.7986 H   0  0  0  0  0  0  0  0  0  0  0  0
    1.1968    1.3912    2.2055 H   0  0  0  0  0  0  0  0  0  0  0  0
    0.3978    2.2770    0.8740 H   0  0  0  0  0  0  0  0  0  0  0  0
   -0.6298   -0.0640    2.4974 H   0  0  0  0  0  0  0  0  0  0  0  0
   -1.2781    1.6296    2.3421 H   0  0  0  0  0  0  0  0  0  0  0  0
   -3.7934   -1.5207   -0.4129 H   0  0  0  0  0  0  0  0  0  0  0  0
   -3.7913   -0.1256   -1.5527 H   0  0  0  0  0  0  0  0  0  0  0  0
   -1.5947   -2.1013   -1.0090 H   0  0  0  0  0  0  0  0  0  0  0  0
   -1.7486   -0.8884   -2.3507 H   0  0  0  0  0  0  0  0  0  0  0  0
   -0.7002    0.7688   -1.1915 H   0  0  0  0  0  0  0  0  0  0  0  0
    0.9165   -1.1742   -1.0177 H   0  0  0  0  0  0  0  0  0  0  0  0
    0.2303   -1.5241    0.6351 H   0  0  0  0  0  0  0  0  0  0  0  0
  1  2  2  0
  2  3  1  0
  3  4  1  0
  2  5  1  0
  5  6  1  0
  6  7  1  0
  7  8  1  0
  8  9  1  0
  9 10  2  0
  9 11  1  0
 11 12  1  0
 12 13  1  0
 13 14  1  0
 14  5  1  0
 13  8  1  0
  3 15  1  0
  3 16  1  0
  4 17  1  0
  6 18  1  0
  6 19  1  0
  7 20  1  0
  7 21  1  0
 11 22  1  0
 11 23  1  0
 12 24  1  0
 12 25  1  0
 13 26  1  6
 14 27  1  0
 14 28  1  0
M  END
$$$$

     RDKit          3D

 28 29  0  0  0  0  0  0  0  0999 V2000
    3.0778   -1.8822   -0.0977 O   0  0  0  0  0  0  0  0  0  0  0  0
    2.4915   -0.7564   -0.0769 C   0  0  0  0  0  0  0  0  0  0  0  0
    3.3187    0.4674   -0.1733 C   0  0  0  0  0  0  0  0  0  0  0  0
    4.6681    0.1387   -0.2752 O   0  0  0  0  0  0  0  0  0  0  0  0
    1.0768   -0.7199    0.0371 N   0  0  0  0  0  0  0  0  0  0  0  0
    0.3130   -1.9419    0.1282 C   0  0  0  0  0  0  0  0  0  0  0  0
   -0.9978   -1.8157   -0.5791 C   0  0  0  0  0  0  0  0  0  0  0  0
   -1.6768   -0.5908   -0.2409 N   0  0  0  0  0  0  0  0  0  0  0  0
   -3.0150   -0.1546   -0.4929 C   0  0  0  0  0  0  0  0  0  0  0  0
   -3.9705   -0.9139   -0.7784 O   0  0  0  0  0  0  0  0  0  0  0  0
   -3.1068    1.3054   -0.3694 C   0  0  0  0  0  0  0  0  0  0  0  0
   -1.6926    1.7107   -0.0792 C   0  0  0  0  0  0  0  0  0  0  0  0
   -1.0268    0.4642    0.4700 C   0  0  2  0  0  0  0  0  0  0  0  0
    0.4303    0.5533    0.0592 C   0  0  0  0  0  0  0  0  0  0  0  0
    3.2138    1.1382    0.6923 H   0  0  0  0  0  0  0  0  0  0  0  0
    3.0069    1.0445   -1.0752 H   0  0  0  0  0  0  0  0  0  0  0  0
    5.1665    1.0102   -0.1858 H   0  0  0  0  0  0  0  0  0  0  0  0
    0.1598   -2.2346    1.1972 H   0  0  0  0  0  0  0  0  0  0  0  0
    0.8629   -2.8029   -0.3309 H   0  0  0  0  0  0  0  0  0  0  0  0
   -0.8222   -1.9453   -1.6595 H   0  0  0  0  0  0  0  0  0  0  0  0
   -1.6468   -2.6506   -0.2400 H   0  0  0  0  0  0  0  0  0  0  0  0
   -3.7674    1.6376    0.4554 H   0  0  0  0  0  0  0  0  0  0  0  0
   -3.4637    1.7409   -1.3181 H   0  0  0  0  0  0  0  0  0  0  0  0
   -1.2013    2.0212   -1.0189 H   0  0  0  0  0  0  0  0  0  0  0  0
   -1.6047    2.5491    0.6342 H   0  0  0  0  0  0  0  0  0  0  0  0
   -1.1532    0.4089    1.5675 H   0  0  0  0  0  0  0  0  0  0  0  0
    0.9314    1.2649    0.7619 H   0  0  0  0  0  0  0  0  0  0  0  0
    0.4281    0.9537   -0.9837 H   0  0  0  0  0  0  0  0  0  0  0  0
  1  2  2  0
  2  3  1  0
  3  4  1  0
  2  5  1  0
  5  6  1  0
  6  7  1  0
  7  8  1  0
  8  9  1  0
  9 10  2  0
  9 11  1  0
 11 12  1  0
 12 13  1  0
 13 14  1  0
 14  5  1  0
 13  8  1  0
  3 15  1  0
  3 16  1  0
  4 17  1  0
  6 18  1  0
  6 19  1  0
  7 20  1  0
  7 21  1  0
 11 22  1  0
 11 23  1  0
 12 24  1  0
 12 25  1  0
 13 26  1  1
 14 27  1  0
 14 28  1  0
M  END
$$$$
