
     RDKit          3D

 24 23  0  0  0  0  0  0  0  0999 V2000
    2.0586    0.4571   -1.0990 C   0  0  0  0  0  0  0  0  0  0  0  0
    1.8903   -0.2064    0.2040 C   0  0  2  0  0  0  0  0  0  0  0  0
    2.8177   -1.2916    0.2079 O   0  0  0  0  0  0  0  0  0  0  0  0
    0.5923   -0.7991    0.5744 C   0  0  1  0  0  0  0  0  0  0  0  0
    0.8373   -1.3847    1.8677 O   0  0  0  0  0  0  0  0  0  0  0  0
   -0.5924    0.0590    0.7481 C   0  0  1  0  0  0  0  0  0  0  0  0
   -0.5033    1.1053    1.6266 O   0  0  0  0  0  0  0  0  0  0  0  0
   -1.2814    0.3645   -0.5525 C   0  0  2  0  0  0  0  0  0  0  0  0
   -0.7012    1.3864   -1.2824 O   0  0  0  0  0  0  0  0  0  0  0  0
   -2.7147    0.7137   -0.3501 C   0  0  0  0  0  0  0  0  0  0  0  0
   -3.1499    1.7840   -0.8254 O   0  0  0  0  0  0  0  0  0  0  0  0
   -3.5998   -0.0977    0.3465 O   0  0  0  0  0  0  0  0  0  0  0  0
    3.1547    0.3345   -1.3917 H   0  0  0  0  0  0  0  0  0  0  0  0
    1.5325    0.0004   -1.9513 H   0  0  0  0  0  0  0  0  0  0  0  0
    1.9771    1.5771   -1.0594 H   0  0  0  0  0  0  0  0  0  0  0  0
    2.2581    0.4712    1.0035 H   0  0  0  0  0  0  0  0  0  0  0  0
    2.4100   -1.9386   -0.4497 H   0  0  0  0  0  0  0  0  0  0  0  0
    0.3262   -1.6651   -0.0616 H   0  0  0  0  0  0  0  0  0  0  0  0
    1.7501   -1.7890    1.8498 H   0  0  0  0  0  0  0  0  0  0  0  0
   -1.3645   -0.6370    1.2763 H   0  0  0  0  0  0  0  0  0  0  0  0
   -0.5909    0.8437    2.5647 H   0  0  0  0  0  0  0  0  0  0  0  0
   -1.3235   -0.5910   -1.1690 H   0  0  0  0  0  0  0  0  0  0  0  0
   -1.2083    1.4943   -2.1019 H   0  0  0  0  0  0  0  0  0  0  0  0
   -4.5747   -0.1912    0.0247 H   0  0  0  0  0  0  0  0  0  0  0  0
  1  2  1  0
  2  3  1  0
  2  4  1  0
  4  5  1  0
  4  6  1  0
  6  7  1  0
  6  8  1  0
  8  9  1  0
  8 10  1  0
 10 11  2  0
 10 12  1  0
  1 13  1  0
  1 14  1  0
  1 15  1  0
  2 16  1  1
  3 17  1  0
  4 18  1  6
  5 19  1  0
  6 20  1  1
  7 21  1  0
  8 22  1  6
  9 23  1  0
 12 24  1  0
M  END
$$$$

     RDKit          3D

 24 23  0  0  0  0  0  0  0  0999 V2000
    2.4349    0.8310    1.3895 C   0  0  0  0  0  0  0  0  0  0  0  0
    1.8075   -0.2233    0.5188 C   0  0  2  0  0  0  0  0  0  0  0  0
    2.5122   -0.4252   -0.6448 O   0  0  0  0  0  0  0  0  0  0  0  0
    0.3761    0.2145    0.2203 C   0  0  1  0  0  0  0  0  0  0  0  0
    0.4227    1.3965   -0.4977 O   0  0  0  0  0  0  0  0  0  0  0  0
   -0.2945   -0.9013   -0.5418 C   0  0  1  0  0  0  0  0  0  0  0  0
   -0.3065   -2.0355    0.2226 O   0  0  0  0  0  0  0  0  0  0  0  0
   -1.6593   -0.5010   -1.0474 C   0  0  2  0  0  0  0  0  0  0  0  0
   -1.6134    0.6531   -1.8187 O   0  0  0  0  0  0  0  0  0  0  0  0
   -2.6462   -0.3224    0.0226 C   0  0  0  0  0  0  0  0  0  0  0  0
   -2.9125   -1.1971    0.8843 O   0  0  0  0  0  0  0  0  0  0  0  0
   -3.3343    0.8741    0.1029 O   0  0  0  0  0  0  0  0  0  0  0  0
    1.9688    1.8011    1.1465 H   0  0  0  0  0  0  0  0  0  0  0  0
    3.5110    0.8764    1.1587 H   0  0  0  0  0  0  0  0  0  0  0  0
    2.2466    0.5944    2.4513 H   0  0  0  0  0  0  0  0  0  0  0  0
    1.8146   -1.1765    1.0878 H   0  0  0  0  0  0  0  0  0  0  0  0
    3.0299    0.3837   -0.8844 H   0  0  0  0  0  0  0  0  0  0  0  0
   -0.1808    0.3599    1.1636 H   0  0  0  0  0  0  0  0  0  0  0  0
    1.2937    1.4701   -0.9257 H   0  0  0  0  0  0  0  0  0  0  0  0
    0.3326   -1.1173   -1.4479 H   0  0  0  0  0  0  0  0  0  0  0  0
   -0.8622   -2.7596   -0.1110 H   0  0  0  0  0  0  0  0  0  0  0  0
   -2.0508   -1.3342   -1.7022 H   0  0  0  0  0  0  0  0  0  0  0  0
   -1.8312    1.4620   -1.3141 H   0  0  0  0  0  0  0  0  0  0  0  0
   -4.0589    1.0766    0.7662 H   0  0  0  0  0  0  0  0  0  0  0  0
  1  2  1  0
  2  3  1  0
  2  4  1  0
  4  5  1  0
  4  6  1  0
  6  7  1  0
  6  8  1  0
  8  9  1  0
  8 10  1  0
 10 11  2  0
 10 12  1  0
  1 13  1  0
  1 14  1  0
  1 15  1  0
  2 16  1  1
  3 17  1  0
  4 18  1  1
  5 19  1  0
  6 20  1  6
  7 21  1  0
  8 22  1  6
  9 23  1  0
 12 24  1  0
M  END
$$$$

     RDKit          3D

 24 23  0  0  0  0  0  0  0  0999 V2000
   -2.5662   -0.9775   -0.7893 C   0  0  0  0  0  0  0  0  0  0  0  0
   -1.4279   -0.4436    0.0714 C   0  0  2  0  0  0  0  0  0  0  0  0
   -1.9572    0.5061    0.9443 O   0  0  0  0  0  0  0  0  0  0  0  0
   -0.4347    0.1972   -0.8285 C   0  0  1  0  0  0  0  0  0  0  0  0
   -1.1262    1.2057   -1.5456 O   0  0  0  0  0  0  0  0  0  0  0  0
    0.7058    0.8648   -0.1618 C   0  0  1  0  0  0  0  0  0  0  0  0
    0.2093    1.8541    0.7003 O   0  0  0  0  0  0  0  0  0  0  0  0
    1.5801   -0.0348    0.6617 C   0  0  2  0  0  0  0  0  0  0  0  0
    2.5980    0.7637    1.1819 O   0  0  0  0  0  0  0  0  0  0  0  0
    2.2080   -1.1121   -0.1182 C   0  0  0  0  0  0  0  0  0  0  0  0
    1.4817   -1.9581   -0.6799 O   0  0  0  0  0  0  0  0  0  0  0  0
    3.5748   -1.1845   -0.2257 O   0  0  0  0  0  0  0  0  0  0  0  0
   -2.4362   -0.7152   -1.8587 H   0  0  0  0  0  0  0  0  0  0  0  0
   -3.5449   -0.5761   -0.4740 H   0  0  0  0  0  0  0  0  0  0  0  0
   -2.6303   -2.0814   -0.6737 H   0  0  0  0  0  0  0  0  0  0  0  0
   -1.0256   -1.2616    0.6882 H   0  0  0  0  0  0  0  0  0  0  0  0
   -2.9471    0.5309    0.8838 H   0  0  0  0  0  0  0  0  0  0  0  0
   -0.0973   -0.5170   -1.6191 H   0  0  0  0  0  0  0  0  0  0  0  0
   -1.6851    1.6551   -0.8501 H   0  0  0  0  0  0  0  0  0  0  0  0
    1.3421    1.3369   -0.9371 H   0  0  0  0  0  0  0  0  0  0  0  0
    0.3115    2.7485    0.3325 H   0  0  0  0  0  0  0  0  0  0  0  0
    1.0529   -0.4535    1.5473 H   0  0  0  0  0  0  0  0  0  0  0  0
    2.7424    1.5884    0.6362 H   0  0  0  0  0  0  0  0  0  0  0  0
    4.0718   -1.9360   -0.7027 H   0  0  0  0  0  0  0  0  0  0  0  0
  1  2  1  0
  2  3  1  0
  2  4  1  0
  4  5  1  0
  4  6  1  0
  6  7  1  0
  6  8  1  0
  8  9  1  0
  8 10  1  0
 10 11  2  0
 10 12  1  0
  1 13  1  0
  1 14  1  0
  1 15  1  0
  2 16  1  1
  3 17  1  0
  4 18  1  6
  5 19  1  0
  6 20  1  6
  7 21  1  0
  8 22  1  1
  9 23  1  0
 12 24  1  0
M  END
$$$$

     RDKit          3D

 24 23  0  0  0  0  0  0  0  0999 V2000
    2.7004   -0.2497   -0.0052 C   0  0  0  0  0  0  0  0  0  0  0  0
    1.7528    0.7079   -0.6703 C   0  0  2  0  0  0  0  0  0  0  0  0
    2.2708    1.9997   -0.4083 O   0  0  0  0  0  0  0  0  0  0  0  0
    0.3730    0.6712   -0.0405 C   0  0  1  0  0  0  0  0  0  0  0  0
   -0.4295    1.6846   -0.6083 O   0  0  0  0  0  0  0  0  0  0  0  0
   -0.2478   -0.6736   -0.2276 C   0  0  1  0  0  0  0  0  0  0  0  0
    0.6581   -1.5990    0.3636 O   0  0  0  0  0  0  0  0  0  0  0  0
   -1.5419   -0.8785    0.5202 C   0  0  2  0  0  0  0  0  0  0  0  0
   -1.8603   -2.2455    0.2961 O   0  0  0  0  0  0  0  0  0  0  0  0
   -2.6719   -0.0811    0.0879 C   0  0  0  0  0  0  0  0  0  0  0  0
   -3.6621   -0.6808   -0.4580 O   0  0  0  0  0  0  0  0  0  0  0  0
   -2.8387    1.2849    0.1865 O   0  0  0  0  0  0  0  0  0  0  0  0
    3.7607    0.1532   -0.0450 H   0  0  0  0  0  0  0  0  0  0  0  0
    2.7714   -1.2389   -0.5112 H   0  0  0  0  0  0  0  0  0  0  0  0
    2.4698   -0.3440    1.0726 H   0  0  0  0  0  0  0  0  0  0  0  0
    1.7080    0.5817   -1.7671 H   0  0  0  0  0  0  0  0  0  0  0  0
    2.1981    2.1443    0.5604 H   0  0  0  0  0  0  0  0  0  0  0  0
    0.4666    0.9103    1.0294 H   0  0  0  0  0  0  0  0  0  0  0  0
   -0.3099    2.5460   -0.1259 H   0  0  0  0  0  0  0  0  0  0  0  0
   -0.3353   -0.9050   -1.2863 H   0  0  0  0  0  0  0  0  0  0  0  0
    0.1666   -2.3802    0.7220 H   0  0  0  0  0  0  0  0  0  0  0  0
   -1.3939   -0.7863    1.6010 H   0  0  0  0  0  0  0  0  0  0  0  0
   -2.7345   -2.3897    0.7281 H   0  0  0  0  0  0  0  0  0  0  0  0
   -3.2705    1.7685   -0.6086 H   0  0  0  0  0  0  0  0  0  0  0  0
  1  2  1  0
  2  3  1  0
  2  4  1  0
  4  5  1  0
  4  6  1  0
  6  7  1  0
  6  8  1  0
  8  9  1  0
  8 10  1  0
 10 11  2  0
 10 12  1  0
  1 13  1  0
  1 14  1  0
  1 15  1  0
  2 16  1  6
  3 17  1  0
  4 18  1  1
  5 19  1  0
  6 20  1  6
  7 21  1  0
  8 22  1  1
  9 23  1  0
 12 24  1  0
M  END
$$$$

     RDKit          3D

 24 23  0  0  0  0  0  0  0  0999 V2000
   -2.9457   -0.5113   -0.1202 C   0  0  0  0  0  0  0  0  0  0  0  0
   -1.4846   -0.7295    0.2561 C   0  0  2  0  0  0  0  0  0  0  0  0
   -1.3634   -0.4233    1.5956 O   0  0  0  0  0  0  0  0  0  0  0  0
   -0.6529    0.1238   -0.6417 C   0  0  1  0  0  0  0  0  0  0  0  0
   -1.0362    1.4540   -0.4798 O   0  0  0  0  0  0  0  0  0  0  0  0
    0.8085   -0.0882   -0.5376 C   0  0  1  0  0  0  0  0  0  0  0  0
    1.4235    0.6797   -1.5503 O   0  0  0  0  0  0  0  0  0  0  0  0
    1.4186    0.3534    0.7616 C   0  0  2  0  0  0  0  0  0  0  0  0
    1.2332    1.6817    1.0389 O   0  0  0  0  0  0  0  0  0  0  0  0
    2.8732    0.0666    0.7853 C   0  0  0  0  0  0  0  0  0  0  0  0
    3.6997    0.9791    1.0321 O   0  0  0  0  0  0  0  0  0  0  0  0
    3.3904   -1.1975    0.5416 O   0  0  0  0  0  0  0  0  0  0  0  0
   -3.1293   -0.7124   -1.1921 H   0  0  0  0  0  0  0  0  0  0  0  0
   -3.6228   -1.0747    0.5542 H   0  0  0  0  0  0  0  0  0  0  0  0
   -3.1655    0.5683    0.0706 H   0  0  0  0  0  0  0  0  0  0  0  0
   -1.2585   -1.8125    0.1305 H   0  0  0  0  0  0  0  0  0  0  0  0
   -2.0267    0.2447    1.8896 H   0  0  0  0  0  0  0  0  0  0  0  0
   -0.9474   -0.1399   -1.6987 H   0  0  0  0  0  0  0  0  0  0  0  0
   -1.8312    1.6432   -1.0365 H   0  0  0  0  0  0  0  0  0  0  0  0
    1.0406   -1.1372   -0.7610 H   0  0  0  0  0  0  0  0  0  0  0  0
    1.0839    0.4152   -2.4513 H   0  0  0  0  0  0  0  0  0  0  0  0
    0.9702   -0.3101    1.5588 H   0  0  0  0  0  0  0  0  0  0  0  0
    1.2312    2.2003    0.2115 H   0  0  0  0  0  0  0  0  0  0  0  0
    4.2913   -1.2146    0.0428 H   0  0  0  0  0  0  0  0  0  0  0  0
  1  2  1  0
  2  3  1  0
  2  4  1  0
  4  5  1  0
  4  6  1  0
  6  7  1  0
  6  8  1  0
  8  9  1  0
  8 10  1  0
 10 11  2  0
 10 12  1  0
  1 13  1  0
  1 14  1  0
  1 15  1  0
  2 16  1  1
  3 17  1  0
  4 18  1  6
  5 19  1  0
  6 20  1  6
  7 21  1  0
  8 22  1  1
  9 23  1  0
 12 24  1  0
M  END
$$$$

     RDKit          3D

 24 23  0  0  0  0  0  0  0  0999 V2000
   -2.6637    0.7641   -0.2931 C   0  0  0  0  0  0  0  0  0  0  0  0
   -2.0063   -0.1662    0.6900 C   0  0  2  0  0  0  0  0  0  0  0  0
   -1.7354    0.4808    1.8795 O   0  0  0  0  0  0  0  0  0  0  0  0
   -0.7744   -0.8233    0.1377 C   0  0  1  0  0  0  0  0  0  0  0  0
   -1.0144   -1.4816   -1.0574 O   0  0  0  0  0  0  0  0  0  0  0  0
    0.3601    0.1802   -0.0384 C   0  0  1  0  0  0  0  0  0  0  0  0
    0.6225    0.8545    1.1408 O   0  0  0  0  0  0  0  0  0  0  0  0
    1.6155   -0.5371   -0.5111 C   0  0  2  0  0  0  0  0  0  0  0  0
    1.9733   -1.4286    0.4935 O   0  0  0  0  0  0  0  0  0  0  0  0
    2.7036    0.4162   -0.7441 C   0  0  0  0  0  0  0  0  0  0  0  0
    2.6288    1.3283   -1.6060 O   0  0  0  0  0  0  0  0  0  0  0  0
    3.8762    0.3424   -0.0062 O   0  0  0  0  0  0  0  0  0  0  0  0
   -2.1052    1.7440   -0.2934 H   0  0  0  0  0  0  0  0  0  0  0  0
   -3.6830    1.0106    0.0713 H   0  0  0  0  0  0  0  0  0  0  0  0
   -2.6818    0.3774   -1.3124 H   0  0  0  0  0  0  0  0  0  0  0  0
   -2.7421   -0.9678    0.9169 H   0  0  0  0  0  0  0  0  0  0  0  0
   -1.1276   -0.0266    2.4546 H   0  0  0  0  0  0  0  0  0  0  0  0
   -0.4249   -1.5811    0.8681 H   0  0  0  0  0  0  0  0  0  0  0  0
   -1.1416   -0.8664   -1.8150 H   0  0  0  0  0  0  0  0  0  0  0  0
    0.0629    0.9021   -0.8388 H   0  0  0  0  0  0  0  0  0  0  0  0
    0.4035    1.8178    1.0526 H   0  0  0  0  0  0  0  0  0  0  0  0
    1.4128   -1.0832   -1.4541 H   0  0  0  0  0  0  0  0  0  0  0  0
    1.9249   -2.3526    0.1533 H   0  0  0  0  0  0  0  0  0  0  0  0
    4.5162    1.0962    0.1116 H   0  0  0  0  0  0  0  0  0  0  0  0
  1  2  1  0
  2  3  1  0
  2  4  1  0
  4  5  1  0
  4  6  1  0
  6  7  1  0
  6  8  1  0
  8  9  1  0
  8 10  1  0
 10 11  2  0
 10 12  1  0
  1 13  1  0
  1 14  1  0
  1 15  1  0
  2 16  1  1
  3 17  1  0
  4 18  1  1
  5 19  1  0
  6 20  1  6
  7 21  1  0
  8 22  1  6
  9 23  1  0
 12 24  1  0
M  END
$$$$

     RDKit          3D

 24 23  0  0  0  0  0  0  0  0999 V2000
    2.0244    0.1067    1.6116 C   0  0  0  0  0  0  0  0  0  0  0  0
    1.7996   -0.4971    0.2239 C   0  0  2  0  0  0  0  0  0  0  0  0
    3.0747   -0.5463   -0.3699 O   0  0  0  0  0  0  0  0  0  0  0  0
    0.9755    0.4287   -0.6302 C   0  0  1  0  0  0  0  0  0  0  0  0
    0.9011   -0.0588   -1.9099 O   0  0  0  0  0  0  0  0  0  0  0  0
   -0.3900    0.7016   -0.0688 C   0  0  1  0  0  0  0  0  0  0  0  0
   -0.9968    1.6471   -0.8976 O   0  0  0  0  0  0  0  0  0  0  0  0
   -1.2708   -0.5119   -0.0248 C   0  0  2  0  0  0  0  0  0  0  0  0
   -1.4594   -1.0732   -1.2757 O   0  0  0  0  0  0  0  0  0  0  0  0
   -2.5958   -0.0971    0.5058 C   0  0  0  0  0  0  0  0  0  0  0  0
   -2.7210    0.4477    1.6368 O   0  0  0  0  0  0  0  0  0  0  0  0
   -3.7577   -0.2941   -0.2277 O   0  0  0  0  0  0  0  0  0  0  0  0
    2.8513   -0.3761    2.1359 H   0  0  0  0  0  0  0  0  0  0  0  0
    2.2127    1.1836    1.5588 H   0  0  0  0  0  0  0  0  0  0  0  0
    1.0638   -0.0364    2.1690 H   0  0  0  0  0  0  0  0  0  0  0  0
    1.4003   -1.5076    0.3127 H   0  0  0  0  0  0  0  0  0  0  0  0
    3.6636   -1.1986    0.0391 H   0  0  0  0  0  0  0  0  0  0  0  0
    1.5120    1.4048   -0.6634 H   0  0  0  0  0  0  0  0  0  0  0  0
    1.2591    0.5639   -2.5942 H   0  0  0  0  0  0  0  0  0  0  0  0
   -0.3223    1.1296    0.9382 H   0  0  0  0  0  0  0  0  0  0  0  0
   -1.3572    1.1746   -1.6922 H   0  0  0  0  0  0  0  0  0  0  0  0
   -0.8454   -1.3079    0.6246 H   0  0  0  0  0  0  0  0  0  0  0  0
   -2.3625   -1.3974   -1.4420 H   0  0  0  0  0  0  0  0  0  0  0  0
   -4.6592    0.1143    0.0399 H   0  0  0  0  0  0  0  0  0  0  0  0
  1  2  1  0
  2  3  1  0
  2  4  1  0
  4  5  1  0
  4  6  1  0
  6  7  1  0
  6  8  1  0
  8  9  1  0
  8 10  1  0
 10 11  2  0
 10 12  1  0
  1 13  1  0
  1 14  1  0
  1 15  1  0
  2 16  1  1
  3 17  1  0
  4 18  1  6
  5 19  1  0
  6 20  1  1
  7 21  1  0
  8 22  1  1
  9 23  1  0
 12 24  1  0
M  END
$$$$

     RDKit          3D

 24 23  0  0  0  0  0  0  0  0999 V2000
    2.7510    1.0882   -0.6056 C   0  0  0  0  0  0  0  0  0  0  0  0
    1.6702    0.4809    0.2323 C   0  0  2  0  0  0  0  0  0  0  0  0
    2.1420   -0.6413    0.9088 O   0  0  0  0  0  0  0  0  0  0  0  0
    0.4497    0.0900   -0.5730 C   0  0  1  0  0  0  0  0  0  0  0  0
    0.7772   -0.9073   -1.5008 O   0  0  0  0  0  0  0  0  0  0  0  0
   -0.5909   -0.4223    0.3948 C   0  0  1  0  0  0  0  0  0  0  0  0
   -0.8955    0.5869    1.3016 O   0  0  0  0  0  0  0  0  0  0  0  0
   -1.8540   -0.8619   -0.3117 C   0  0  2  0  0  0  0  0  0  0  0  0
   -1.5771   -1.8750   -1.2285 O   0  0  0  0  0  0  0  0  0  0  0  0
   -2.5585    0.2644   -0.9541 C   0  0  0  0  0  0  0  0  0  0  0  0
   -2.8613    0.2877   -2.1740 O   0  0  0  0  0  0  0  0  0  0  0  0
   -2.9041    1.3508   -0.1754 O   0  0  0  0  0  0  0  0  0  0  0  0
    3.2850    1.8480    0.0150 H   0  0  0  0  0  0  0  0  0  0  0  0
    2.2877    1.6799   -1.4400 H   0  0  0  0  0  0  0  0  0  0  0  0
    3.4424    0.3612   -1.0391 H   0  0  0  0  0  0  0  0  0  0  0  0
    1.3383    1.2370    0.9745 H   0  0  0  0  0  0  0  0  0  0  0  0
    2.7471   -1.1604    0.3287 H   0  0  0  0  0  0  0  0  0  0  0  0
    0.0823    0.9719   -1.1256 H   0  0  0  0  0  0  0  0  0  0  0  0
    1.1820   -1.6914   -1.0573 H   0  0  0  0  0  0  0  0  0  0  0  0
   -0.1798   -1.2929    0.9382 H   0  0  0  0  0  0  0  0  0  0  0  0
   -1.0956    0.2368    2.2005 H   0  0  0  0  0  0  0  0  0  0  0  0
   -2.5277   -1.2676    0.4738 H   0  0  0  0  0  0  0  0  0  0  0  0
   -2.1483   -2.6586   -1.0581 H   0  0  0  0  0  0  0  0  0  0  0  0
   -2.9622    2.2951   -0.5412 H   0  0  0  0  0  0  0  0  0  0  0  0
  1  2  1  0
  2  3  1  0
  2  4  1  0
  4  5  1  0
  4  6  1  0
  6  7  1  0
  6  8  1  0
  8  9  1  0
  8 10  1  0
 10 11  2  0
 10 12  1  0
  1 13  1  0
  1 14  1  0
  1 15  1  0
  2 16  1  1
  3 17  1  0
  4 18  1  6
  5 19  1  0
  6 20  1  1
  7 21  1  0
  8 22  1  1
  9 23  1  0
 12 24  1  0
M  END
$$$$
