
     RDKit          3D

 27 27  0  0  0  0  0  0  0  0999 V2000
    3.0730    0.3332    1.0821 O   0  0  0  0  0  0  0  0  0  0  0  0
    2.8954    0.3384   -0.2998 C   0  0  0  0  0  0  0  0  0  0  0  0
    1.6541   -0.5014   -0.6158 C   0  0  1  0  0  0  0  0  0  0  0  0
    1.9220   -1.7666   -0.1293 O   0  0  0  0  0  0  0  0  0  0  0  0
    0.4173    0.1139   -0.0750 C   0  0  0  0  0  0  0  0  0  0  0  0
   -0.8060   -0.5596   -0.3159 N   0  0  0  0  0  0  0  0  0  0  0  0
   -0.9918   -1.8172    0.3720 C   0  0  0  0  0  0  0  0  0  0  0  0
   -1.3416   -1.3336    1.7655 C   0  0  0  0  0  0  0  0  0  0  0  0
   -1.9165   -0.1433    1.6399 C   0  0  0  0  0  0  0  0  0  0  0  0
   -1.9528    0.1636    0.1950 C   0  0  1  0  0  0  0  0  0  0  0  0
   -1.9503    1.6304   -0.1038 C   0  0  0  0  0  0  0  0  0  0  0  0
   -1.9302    1.7840   -1.4891 O   0  0  0  0  0  0  0  0  0  0  0  0
    3.4200    1.1940    1.3946 H   0  0  0  0  0  0  0  0  0  0  0  0
    2.7860    1.3681   -0.6962 H   0  0  0  0  0  0  0  0  0  0  0  0
    3.7788   -0.1209   -0.7804 H   0  0  0  0  0  0  0  0  0  0  0  0
    1.6104   -0.4933   -1.7423 H   0  0  0  0  0  0  0  0  0  0  0  0
    2.0798   -1.6717    0.8473 H   0  0  0  0  0  0  0  0  0  0  0  0
    0.3408    1.1370   -0.5271 H   0  0  0  0  0  0  0  0  0  0  0  0
    0.5802    0.2738    1.0228 H   0  0  0  0  0  0  0  0  0  0  0  0
   -0.1525   -2.4884    0.4096 H   0  0  0  0  0  0  0  0  0  0  0  0
   -1.8652   -2.3325   -0.0793 H   0  0  0  0  0  0  0  0  0  0  0  0
   -1.1257   -1.9170    2.6537 H   0  0  0  0  0  0  0  0  0  0  0  0
   -2.2739    0.4486    2.4822 H   0  0  0  0  0  0  0  0  0  0  0  0
   -2.8710   -0.3174   -0.2046 H   0  0  0  0  0  0  0  0  0  0  0  0
   -2.9665    2.0044    0.2203 H   0  0  0  0  0  0  0  0  0  0  0  0
   -1.1430    2.1930    0.3565 H   0  0  0  0  0  0  0  0  0  0  0  0
   -1.2710    2.4802   -1.7439 H   0  0  0  0  0  0  0  0  0  0  0  0
  1  2  1  0
  2  3  1  0
  3  4  1  0
  3  5  1  0
  5  6  1  0
  6  7  1  0
  7  8  1  0
  8  9  2  0
  9 10  1  0
 10 11  1  0
 11 12  1  0
 10  6  1  0
  1 13  1  0
  2 14  1  0
  2 15  1  0
  3 16  1  6
  4 17  1  0
  5 18  1  0
  5 19  1  0
  7 20  1  0
  7 21  1  0
  8 22  1  0
  9 23  1  0
 10 24  1  6
 11 25  1  0
 11 26  1  0
 12 27  1  0
M  END
$$$$

     RDKit          3D

 27 27  0  0  0  0  0  0  0  0999 V2000
    3.4205   -0.4282    0.6986 O   0  0  0  0  0  0  0  0  0  0  0  0
    2.2884   -0.6913   -0.1042 C   0  0  0  0  0  0  0  0  0  0  0  0
    1.5172    0.5862   -0.3599 C   0  0  1  0  0  0  0  0  0  0  0  0
    2.4729    1.4330   -0.9982 O   0  0  0  0  0  0  0  0  0  0  0  0
    0.3550    0.4473   -1.2667 C   0  0  0  0  0  0  0  0  0  0  0  0
   -0.7462   -0.3034   -0.9393 N   0  0  0  0  0  0  0  0  0  0  0  0
   -0.6932   -1.7149   -0.8552 C   0  0  0  0  0  0  0  0  0  0  0  0
   -1.1134   -2.0211    0.5658 C   0  0  0  0  0  0  0  0  0  0  0  0
   -1.7198   -0.9487    1.0362 C   0  0  0  0  0  0  0  0  0  0  0  0
   -1.7242    0.0799   -0.0276 C   0  0  1  0  0  0  0  0  0  0  0  0
   -1.7190    1.4794    0.4890 C   0  0  0  0  0  0  0  0  0  0  0  0
   -1.8580    2.3604   -0.5573 O   0  0  0  0  0  0  0  0  0  0  0  0
    3.8715    0.3874    0.3143 H   0  0  0  0  0  0  0  0  0  0  0  0
    1.6875   -1.4011    0.5053 H   0  0  0  0  0  0  0  0  0  0  0  0
    2.6557   -1.1364   -1.0285 H   0  0  0  0  0  0  0  0  0  0  0  0
    1.3144    1.0333    0.6198 H   0  0  0  0  0  0  0  0  0  0  0  0
    2.1214    2.3603   -0.9726 H   0  0  0  0  0  0  0  0  0  0  0  0
    0.0546    1.4858   -1.6179 H   0  0  0  0  0  0  0  0  0  0  0  0
    0.7869    0.0202   -2.2338 H   0  0  0  0  0  0  0  0  0  0  0  0
    0.2245   -2.2131   -1.1509 H   0  0  0  0  0  0  0  0  0  0  0  0
   -1.5461   -2.1379   -1.4742 H   0  0  0  0  0  0  0  0  0  0  0  0
   -0.9028   -2.9866    1.0255 H   0  0  0  0  0  0  0  0  0  0  0  0
   -2.1322   -0.8556    2.0216 H   0  0  0  0  0  0  0  0  0  0  0  0
   -2.7323   -0.0525   -0.5333 H   0  0  0  0  0  0  0  0  0  0  0  0
   -0.9053    1.7202    1.1964 H   0  0  0  0  0  0  0  0  0  0  0  0
   -2.6615    1.5987    1.1055 H   0  0  0  0  0  0  0  0  0  0  0  0
   -2.3165    1.8986   -1.2920 H   0  0  0  0  0  0  0  0  0  0  0  0
  1  2  1  0
  2  3  1  0
  3  4  1  0
  3  5  1  0
  5  6  1  0
  6  7  1  0
  7  8  1  0
  8  9  2  0
  9 10  1  0
 10 11  1  0
 11 12  1  0
 10  6  1  0
  1 13  1  0
  2 14  1  0
  2 15  1  0
  3 16  1  1
  4 17  1  0
  5 18  1  0
  5 19  1  0
  7 20  1  0
  7 21  1  0
  8 22  1  0
  9 23  1  0
 10 24  1  6
 11 25  1  0
 11 26  1  0
 12 27  1  0
M  END
$$$$

     RDKit          3D

 27 27  0  0  0  0  0  0  0  0999 V2000
    2.1470    1.6535   -0.2964 O   0  0  0  0  0  0  0  0  0  0  0  0
    2.6020    0.5477    0.3892 C   0  0  0  0  0  0  0  0  0  0  0  0
    1.7727   -0.6789    0.0143 C   0  0  1  0  0  0  0  0  0  0  0  0
    2.3076   -1.7399    0.7590 O   0  0  0  0  0  0  0  0  0  0  0  0
    0.3403   -0.5422    0.4011 C   0  0  0  0  0  0  0  0  0  0  0  0
   -0.3528    0.5284   -0.2934 N   0  0  0  0  0  0  0  0  0  0  0  0
   -0.4648    0.1555   -1.7202 C   0  0  0  0  0  0  0  0  0  0  0  0
   -1.1616   -1.1520   -1.5739 C   0  0  0  0  0  0  0  0  0  0  0  0
   -1.9734   -1.0427   -0.4977 C   0  0  0  0  0  0  0  0  0  0  0  0
   -1.7817    0.3351    0.0249 C   0  0  1  0  0  0  0  0  0  0  0  0
   -2.1050    0.5251    1.4548 C   0  0  0  0  0  0  0  0  0  0  0  0
   -1.7519    1.8333    1.7993 O   0  0  0  0  0  0  0  0  0  0  0  0
    2.6354    2.4528    0.0650 H   0  0  0  0  0  0  0  0  0  0  0  0
    3.6643    0.3675    0.0778 H   0  0  0  0  0  0  0  0  0  0  0  0
    2.5561    0.7211    1.4833 H   0  0  0  0  0  0  0  0  0  0  0  0
    1.9307   -0.9415   -1.0485 H   0  0  0  0  0  0  0  0  0  0  0  0
    3.0617   -2.1369    0.2590 H   0  0  0  0  0  0  0  0  0  0  0  0
   -0.1367   -1.5346    0.2362 H   0  0  0  0  0  0  0  0  0  0  0  0
    0.2861   -0.3214    1.4805 H   0  0  0  0  0  0  0  0  0  0  0  0
    0.4910    0.1106   -2.2167 H   0  0  0  0  0  0  0  0  0  0  0  0
   -1.1769    0.8980   -2.1686 H   0  0  0  0  0  0  0  0  0  0  0  0
   -1.0257   -2.0052   -2.2154 H   0  0  0  0  0  0  0  0  0  0  0  0
   -2.6216   -1.8199   -0.1145 H   0  0  0  0  0  0  0  0  0  0  0  0
   -2.3617    1.0588   -0.5757 H   0  0  0  0  0  0  0  0  0  0  0  0
   -3.2196    0.4791    1.5392 H   0  0  0  0  0  0  0  0  0  0  0  0
   -1.7059   -0.2174    2.1407 H   0  0  0  0  0  0  0  0  0  0  0  0
   -1.9557    2.4662    1.0663 H   0  0  0  0  0  0  0  0  0  0  0  0
  1  2  1  0
  2  3  1  0
  3  4  1  0
  3  5  1  0
  5  6  1  0
  6  7  1  0
  7  8  1  0
  8  9  2  0
  9 10  1  0
 10 11  1  0
 11 12  1  0
 10  6  1  0
  1 13  1  0
  2 14  1  0
  2 15  1  0
  3 16  1  6
  4 17  1  0
  5 18  1  0
  5 19  1  0
  7 20  1  0
  7 21  1  0
  8 22  1  0
  9 23  1  0
 10 24  1  6
 11 25  1  0
 11 26  1  0
 12 27  1  0
M  END
$$$$

     RDKit          3D

 27 27  0  0  0  0  0  0  0  0999 V2000
    2.4679    1.7097    0.6381 O   0  0  0  0  0  0  0  0  0  0  0  0
    2.6267    0.3391    0.4937 C   0  0  0  0  0  0  0  0  0  0  0  0
    1.9799   -0.1709   -0.7794 C   0  0  1  0  0  0  0  0  0  0  0  0
    2.1703   -1.5435   -0.8716 O   0  0  0  0  0  0  0  0  0  0  0  0
    0.5524    0.2516   -0.9052 C   0  0  0  0  0  0  0  0  0  0  0  0
   -0.3191   -0.2998    0.0980 N   0  0  0  0  0  0  0  0  0  0  0  0
   -0.4747   -1.7518   -0.0703 C   0  0  0  0  0  0  0  0  0  0  0  0
   -1.7560   -1.9528    0.7039 C   0  0  0  0  0  0  0  0  0  0  0  0
   -2.4670   -0.8321    0.6232 C   0  0  0  0  0  0  0  0  0  0  0  0
   -1.6757    0.1179   -0.1970 C   0  0  1  0  0  0  0  0  0  0  0  0
   -1.9475    1.5510    0.1375 C   0  0  0  0  0  0  0  0  0  0  0  0
   -1.7650    1.8620    1.4608 O   0  0  0  0  0  0  0  0  0  0  0  0
    2.3648    1.9290    1.6054 H   0  0  0  0  0  0  0  0  0  0  0  0
    2.2046   -0.1956    1.3687 H   0  0  0  0  0  0  0  0  0  0  0  0
    3.7173    0.1370    0.4872 H   0  0  0  0  0  0  0  0  0  0  0  0
    2.5339    0.3158   -1.6258 H   0  0  0  0  0  0  0  0  0  0  0  0
    2.7406   -1.7908   -1.6441 H   0  0  0  0  0  0  0  0  0  0  0  0
    0.2273    0.0655   -1.9405 H   0  0  0  0  0  0  0  0  0  0  0  0
    0.5349    1.3613   -0.7687 H   0  0  0  0  0  0  0  0  0  0  0  0
    0.3527   -2.3152    0.3720 H   0  0  0  0  0  0  0  0  0  0  0  0
   -0.7083   -2.0113   -1.1172 H   0  0  0  0  0  0  0  0  0  0  0  0
   -2.0593   -2.8463    1.2373 H   0  0  0  0  0  0  0  0  0  0  0  0
   -3.4301   -0.6651    1.0733 H   0  0  0  0  0  0  0  0  0  0  0  0
   -1.8833   -0.1052   -1.2541 H   0  0  0  0  0  0  0  0  0  0  0  0
   -2.9924    1.7692   -0.1716 H   0  0  0  0  0  0  0  0  0  0  0  0
   -1.2930    2.2019   -0.4733 H   0  0  0  0  0  0  0  0  0  0  0  0
   -1.7016    2.8694    1.5197 H   0  0  0  0  0  0  0  0  0  0  0  0
  1  2  1  0
  2  3  1  0
  3  4  1  0
  3  5  1  0
  5  6  1  0
  6  7  1  0
  7  8  1  0
  8  9  2  0
  9 10  1  0
 10 11  1  0
 11 12  1  0
 10  6  1  0
  1 13  1  0
  2 14  1  0
  2 15  1  0
  3 16  1  6
  4 17  1  0
  5 18  1  0
  5 19  1  0
  7 20  1  0
  7 21  1  0
  8 22  1  0
  9 23  1  0
 10 24  1  6
 11 25  1  0
 11 26  1  0
 12 27  1  0
M  END
$$$$

     RDKit          3D

 27 27  0  0  0  0  0  0  0  0999 V2000
    3.5574   -0.2013    1.1026 O   0  0  0  0  0  0  0  0  0  0  0  0
    3.2193   -0.3261   -0.2266 C   0  0  0  0  0  0  0  0  0  0  0  0
    1.7306   -0.5646   -0.4422 C   0  0  1  0  0  0  0  0  0  0  0  0
    1.3419   -1.7233    0.1956 O   0  0  0  0  0  0  0  0  0  0  0  0
    0.9251    0.6411   -0.0874 C   0  0  0  0  0  0  0  0  0  0  0  0
   -0.4450    0.4869   -0.4317 N   0  0  0  0  0  0  0  0  0  0  0  0
   -1.1900    1.7330   -0.2978 C   0  0  0  0  0  0  0  0  0  0  0  0
   -2.2554    1.4884    0.6816 C   0  0  0  0  0  0  0  0  0  0  0  0
   -2.2630    0.2087    1.0071 C   0  0  0  0  0  0  0  0  0  0  0  0
   -1.1742   -0.5217    0.2513 C   0  0  1  0  0  0  0  0  0  0  0  0
   -1.9023   -1.3340   -0.8300 C   0  0  0  0  0  0  0  0  0  0  0  0
   -2.7425   -0.4090   -1.4924 O   0  0  0  0  0  0  0  0  0  0  0  0
    3.8378    0.7225    1.3404 H   0  0  0  0  0  0  0  0  0  0  0  0
    3.8243   -1.1233   -0.7038 H   0  0  0  0  0  0  0  0  0  0  0  0
    3.4914    0.6236   -0.7749 H   0  0  0  0  0  0  0  0  0  0  0  0
    1.6501   -0.8004   -1.5523 H   0  0  0  0  0  0  0  0  0  0  0  0
    1.8116   -2.5231   -0.1288 H   0  0  0  0  0  0  0  0  0  0  0  0
    1.3901    1.5434   -0.5738 H   0  0  0  0  0  0  0  0  0  0  0  0
    1.0276    0.8163    1.0218 H   0  0  0  0  0  0  0  0  0  0  0  0
   -0.5843    2.5852    0.0082 H   0  0  0  0  0  0  0  0  0  0  0  0
   -1.6343    1.9222   -1.3193 H   0  0  0  0  0  0  0  0  0  0  0  0
   -2.9414    2.2155    1.0886 H   0  0  0  0  0  0  0  0  0  0  0  0
   -2.9115   -0.3175    1.6964 H   0  0  0  0  0  0  0  0  0  0  0  0
   -0.6295   -1.1711    0.9405 H   0  0  0  0  0  0  0  0  0  0  0  0
   -1.1689   -1.6986   -1.5656 H   0  0  0  0  0  0  0  0  0  0  0  0
   -2.5088   -2.1408   -0.3752 H   0  0  0  0  0  0  0  0  0  0  0  0
   -3.4563   -0.1318   -0.8901 H   0  0  0  0  0  0  0  0  0  0  0  0
  1  2  1  0
  2  3  1  0
  3  4  1  0
  3  5  1  0
  5  6  1  0
  6  7  1  0
  7  8  1  0
  8  9  2  0
  9 10  1  0
 10 11  1  0
 11 12  1  0
 10  6  1  0
  1 13  1  0
  2 14  1  0
  2 15  1  0
  3 16  1  6
  4 17  1  0
  5 18  1  0
  5 19  1  0
  7 20  1  0
  7 21  1  0
  8 22  1  0
  9 23  1  0
 10 24  1  1
 11 25  1  0
 11 26  1  0
 12 27  1  0
M  END
$$$$

     RDKit          3D

 27 27  0  0  0  0  0  0  0  0999 V2000
    4.3911   -0.3108    0.1125 O   0  0  0  0  0  0  0  0  0  0  0  0
    3.1492   -0.8170    0.4704 C   0  0  0  0  0  0  0  0  0  0  0  0
    2.0664    0.1692    0.1015 C   0  0  1  0  0  0  0  0  0  0  0  0
    2.0997    0.3941   -1.2828 O   0  0  0  0  0  0  0  0  0  0  0  0
    0.6953   -0.3644    0.4636 C   0  0  0  0  0  0  0  0  0  0  0  0
   -0.3665    0.4834    0.1634 N   0  0  0  0  0  0  0  0  0  0  0  0
   -0.6893    0.7365   -1.2062 C   0  0  0  0  0  0  0  0  0  0  0  0
   -1.9248    1.5940   -1.0321 C   0  0  0  0  0  0  0  0  0  0  0  0
   -2.4425    1.3677    0.1885 C   0  0  0  0  0  0  0  0  0  0  0  0
   -1.5782    0.3447    0.8927 C   0  0  1  0  0  0  0  0  0  0  0  0
   -2.2950   -0.9607    0.7206 C   0  0  0  0  0  0  0  0  0  0  0  0
   -2.6554   -1.1948   -0.5970 O   0  0  0  0  0  0  0  0  0  0  0  0
    4.4180    0.6784    0.0822 H   0  0  0  0  0  0  0  0  0  0  0  0
    3.0876   -0.9889    1.5744 H   0  0  0  0  0  0  0  0  0  0  0  0
    2.9817   -1.8065   -0.0025 H   0  0  0  0  0  0  0  0  0  0  0  0
    2.2864    1.1466    0.5818 H   0  0  0  0  0  0  0  0  0  0  0  0
    1.9174   -0.4418   -1.7951 H   0  0  0  0  0  0  0  0  0  0  0  0
    0.7027   -0.5181    1.5844 H   0  0  0  0  0  0  0  0  0  0  0  0
    0.6575   -1.3903    0.0496 H   0  0  0  0  0  0  0  0  0  0  0  0
   -0.9178   -0.1551   -1.7964 H   0  0  0  0  0  0  0  0  0  0  0  0
    0.0540    1.4166   -1.6654 H   0  0  0  0  0  0  0  0  0  0  0  0
   -2.3018    2.2693   -1.7884 H   0  0  0  0  0  0  0  0  0  0  0  0
   -3.3274    1.8692    0.5325 H   0  0  0  0  0  0  0  0  0  0  0  0
   -1.4280    0.6492    1.9382 H   0  0  0  0  0  0  0  0  0  0  0  0
   -1.7339   -1.8429    1.0656 H   0  0  0  0  0  0  0  0  0  0  0  0
   -3.2270   -0.9058    1.3186 H   0  0  0  0  0  0  0  0  0  0  0  0
   -3.6194   -1.4219   -0.6707 H   0  0  0  0  0  0  0  0  0  0  0  0
  1  2  1  0
  2  3  1  0
  3  4  1  0
  3  5  1  0
  5  6  1  0
  6  7  1  0
  7  8  1  0
  8  9  2  0
  9 10  1  0
 10 11  1  0
 11 12  1  0
 10  6  1  0
  1 13  1  0
  2 14  1  0
  2 15  1  0
  3 16  1  1
  4 17  1  0
  5 18  1  0
  5 19  1  0
  7 20  1  0
  7 21  1  0
  8 22  1  0
  9 23  1  0
 10 24  1  1
 11 25  1  0
 11 26  1  0
 12 27  1  0
M  END
$$$$

     RDKit          3D

 27 27  0  0  0  0  0  0  0  0999 V2000
    1.8516    0.4175   -2.0081 O   0  0  0  0  0  0  0  0  0  0  0  0
    2.6623   -0.2445   -1.1212 C   0  0  0  0  0  0  0  0  0  0  0  0
    1.7312   -1.0350   -0.1552 C   0  0  1  0  0  0  0  0  0  0  0  0
    2.6470   -1.6880    0.7107 O   0  0  0  0  0  0  0  0  0  0  0  0
    0.8991   -0.0644    0.6286 C   0  0  0  0  0  0  0  0  0  0  0  0
   -0.1114    0.6438   -0.1343 N   0  0  0  0  0  0  0  0  0  0  0  0
   -0.5243    1.7812    0.7675 C   0  0  0  0  0  0  0  0  0  0  0  0
   -1.7951    2.2035    0.1222 C   0  0  0  0  0  0  0  0  0  0  0  0
   -2.3317    1.1141   -0.4139 C   0  0  0  0  0  0  0  0  0  0  0  0
   -1.4005   -0.0304   -0.1148 C   0  0  1  0  0  0  0  0  0  0  0  0
   -1.6051   -1.1580   -1.0407 C   0  0  0  0  0  0  0  0  0  0  0  0
   -2.9547   -1.6172   -0.8749 O   0  0  0  0  0  0  0  0  0  0  0  0
    1.9500    1.4036   -2.0196 H   0  0  0  0  0  0  0  0  0  0  0  0
    3.2387    0.5015   -0.5111 H   0  0  0  0  0  0  0  0  0  0  0  0
    3.3740   -0.9083   -1.6224 H   0  0  0  0  0  0  0  0  0  0  0  0
    1.2169   -1.7534   -0.7731 H   0  0  0  0  0  0  0  0  0  0  0  0
    2.3001   -2.5750    1.0009 H   0  0  0  0  0  0  0  0  0  0  0  0
    0.4097   -0.5957    1.4560 H   0  0  0  0  0  0  0  0  0  0  0  0
    1.5744    0.6808    1.1353 H   0  0  0  0  0  0  0  0  0  0  0  0
    0.2317    2.5595    0.7689 H   0  0  0  0  0  0  0  0  0  0  0  0
   -0.7380    1.3015    1.7276 H   0  0  0  0  0  0  0  0  0  0  0  0
   -2.2288    3.1836    0.0782 H   0  0  0  0  0  0  0  0  0  0  0  0
   -3.2682    1.0588   -0.9663 H   0  0  0  0  0  0  0  0  0  0  0  0
   -1.6135   -0.2986    0.9505 H   0  0  0  0  0  0  0  0  0  0  0  0
   -1.0059   -2.0604   -0.7357 H   0  0  0  0  0  0  0  0  0  0  0  0
   -1.4463   -0.8672   -2.0739 H   0  0  0  0  0  0  0  0  0  0  0  0
   -3.0634   -1.9532    0.0429 H   0  0  0  0  0  0  0  0  0  0  0  0
  1  2  1  0
  2  3  1  0
  3  4  1  0
  3  5  1  0
  5  6  1  0
  6  7  1  0
  7  8  1  0
  8  9  2  0
  9 10  1  0
 10 11  1  0
 11 12  1  0
 10  6  1  0
  1 13  1  0
  2 14  1  0
  2 15  1  0
  3 16  1  6
  4 17  1  0
  5 18  1  0
  5 19  1  0
  7 20  1  0
  7 21  1  0
  8 22  1  0
  9 23  1  0
 10 24  1  1
 11 25  1  0
 11 26  1  0
 12 27  1  0
M  END
$$$$

     RDKit          3D

 27 27  0  0  0  0  0  0  0  0999 V2000
    3.6757    0.3844   -0.6595 O   0  0  0  0  0  0  0  0  0  0  0  0
    3.1043    0.0972    0.5606 C   0  0  0  0  0  0  0  0  0  0  0  0
    1.7208   -0.5417    0.4147 C   0  0  1  0  0  0  0  0  0  0  0  0
    1.2624   -0.7719    1.6781 O   0  0  0  0  0  0  0  0  0  0  0  0
    0.8905    0.3306   -0.4544 C   0  0  0  0  0  0  0  0  0  0  0  0
   -0.4370   -0.0955   -0.7179 N   0  0  0  0  0  0  0  0  0  0  0  0
   -1.0856    0.7889   -1.6393 C   0  0  0  0  0  0  0  0  0  0  0  0
   -2.0129    1.6330   -0.8586 C   0  0  0  0  0  0  0  0  0  0  0  0
   -2.1749    1.0840    0.3263 C   0  0  0  0  0  0  0  0  0  0  0  0
   -1.3412   -0.1658    0.3657 C   0  0  1  0  0  0  0  0  0  0  0  0
   -2.2740   -1.3595    0.1060 C   0  0  0  0  0  0  0  0  0  0  0  0
   -3.1949   -1.4955    1.1392 O   0  0  0  0  0  0  0  0  0  0  0  0
    4.0999   -0.4026   -1.0558 H   0  0  0  0  0  0  0  0  0  0  0  0
    3.7975   -0.5469    1.1297 H   0  0  0  0  0  0  0  0  0  0  0  0
    3.0055    1.0733    1.1075 H   0  0  0  0  0  0  0  0  0  0  0  0
    1.9079   -1.5204   -0.0830 H   0  0  0  0  0  0  0  0  0  0  0  0
    1.8774   -0.5081    2.3999 H   0  0  0  0  0  0  0  0  0  0  0  0
    0.9582    1.4008   -0.1136 H   0  0  0  0  0  0  0  0  0  0  0  0
    1.4205    0.3460   -1.4562 H   0  0  0  0  0  0  0  0  0  0  0  0
   -0.3327    1.3740   -2.2013 H   0  0  0  0  0  0  0  0  0  0  0  0
   -1.6652    0.1272   -2.3458 H   0  0  0  0  0  0  0  0  0  0  0  0
   -2.4533    2.5499   -1.2623 H   0  0  0  0  0  0  0  0  0  0  0  0
   -2.8000    1.4835    1.1025 H   0  0  0  0  0  0  0  0  0  0  0  0
   -0.9365   -0.2386    1.3754 H   0  0  0  0  0  0  0  0  0  0  0  0
   -2.7319   -1.1873   -0.8770 H   0  0  0  0  0  0  0  0  0  0  0  0
   -1.6015   -2.2490    0.0510 H   0  0  0  0  0  0  0  0  0  0  0  0
   -2.6792   -1.5900    1.9681 H   0  0  0  0  0  0  0  0  0  0  0  0
  1  2  1  0
  2  3  1  0
  3  4  1  0
  3  5  1  0
  5  6  1  0
  6  7  1  0
  7  8  1  0
  8  9  2  0
  9 10  1  0
 10 11  1  0
 11 12  1  0
 10  6  1  0
  1 13  1  0
  2 14  1  0
  2 15  1  0
  3 16  1  6
  4 17  1  0
  5 18  1  0
  5 19  1  0
  7 20  1  0
  7 21  1  0
  8 22  1  0
  9 23  1  0
 10 24  1  1
 11 25  1  0
 11 26  1  0
 12 27  1  0
M  END
$$$$
