
     RDKit          3D

 27 28  0  0  0  0  0  0  0  0999 V2000
   -3.1208    0.5596    1.1205 C   0  0  0  0  0  0  0  0  0  0  0  0
   -1.7382   -0.0945    1.2042 C   0  0  0  0  0  0  0  0  0  0  0  0
   -1.5096   -0.5879   -0.2071 C   0  0  2  0  0  0  0  0  0  0  0  0
   -0.3328   -0.0402   -0.7900 N   0  0  0  0  0  0  0  0  0  0  0  0
    0.8938   -0.3740   -0.2074 C   0  0  0  0  0  0  0  0  0  0  0  0
    1.9996    0.4036   -0.9237 C   0  0  0  0  0  0  0  0  0  0  0  0
    3.3372    0.0869   -0.3941 C   0  0  0  0  0  0  0  0  0  0  0  0
    4.2055   -0.8673   -0.8301 N   0  0  0  0  0  0  0  0  0  0  0  0
    5.2943   -0.8308   -0.0787 N   0  0  0  0  0  0  0  0  0  0  0  0
    5.0893    0.1437    0.8096 N   0  0  0  0  0  0  0  0  0  0  0  0
    3.9241    0.7048    0.6397 N   0  0  0  0  0  0  0  0  0  0  0  0
   -2.7074   -0.1063   -0.9617 C   0  0  0  0  0  0  0  0  0  0  0  0
   -3.7748   -0.1541    0.0275 N   0  0  0  0  0  0  0  0  0  0  0  0
   -3.0556    1.6116    0.8165 H   0  0  0  0  0  0  0  0  0  0  0  0
   -3.7178    0.4073    2.0330 H   0  0  0  0  0  0  0  0  0  0  0  0
   -1.7996   -0.9115    1.9368 H   0  0  0  0  0  0  0  0  0  0  0  0
   -1.0029    0.6946    1.4886 H   0  0  0  0  0  0  0  0  0  0  0  0
   -1.5283   -1.6991   -0.1593 H   0  0  0  0  0  0  0  0  0  0  0  0
   -0.4027    0.4318   -1.6696 H   0  0  0  0  0  0  0  0  0  0  0  0
    0.8737   -0.1452    0.8846 H   0  0  0  0  0  0  0  0  0  0  0  0
    1.1440   -1.4545   -0.3589 H   0  0  0  0  0  0  0  0  0  0  0  0
    1.7525    1.4919   -0.8281 H   0  0  0  0  0  0  0  0  0  0  0  0
    1.9862    0.1946   -1.9995 H   0  0  0  0  0  0  0  0  0  0  0  0
    3.5376    1.4912    1.2161 H   0  0  0  0  0  0  0  0  0  0  0  0
   -2.9429   -0.7515   -1.8405 H   0  0  0  0  0  0  0  0  0  0  0  0
   -2.5404    0.9539   -1.2538 H   0  0  0  0  0  0  0  0  0  0  0  0
   -3.8636   -1.1589    0.3253 H   0  0  0  0  0  0  0  0  0  0  0  0
  1  2  1  0
  2  3  1  0
  3  4  1  0
  4  5  1  0
  5  6  1  0
  6  7  1  0
  7  8  2  0
  8  9  1  0
  9 10  2  0
 10 11  1  0
  3 12  1  0
 12 13  1  0
 13  1  1  0
 11  7  1  0
  1 14  1  0
  1 15  1  0
  2 16  1  0
  2 17  1  0
  3 18  1  1
  4 19  1  0
  5 20  1  0
  5 21  1  0
  6 22  1  0
  6 23  1  0
 11 24  1  0
 12 25  1  0
 12 26  1  0
 13 27  1  0
M  END
$$$$

     RDKit          3D

 27 28  0  0  0  0  0  0  0  0999 V2000
   -2.7788   -0.9166   -0.0024 C   0  0  0  0  0  0  0  0  0  0  0  0
   -2.1337    0.1627   -0.8963 C   0  0  0  0  0  0  0  0  0  0  0  0
   -1.2084    0.7933    0.1435 C   0  0  2  0  0  0  0  0  0  0  0  0
    0.0488    0.1404    0.2377 N   0  0  0  0  0  0  0  0  0  0  0  0
    0.8557    0.3208   -0.9198 C   0  0  0  0  0  0  0  0  0  0  0  0
    2.0470   -0.5728   -0.9941 C   0  0  0  0  0  0  0  0  0  0  0  0
    2.9961   -0.4918    0.1145 C   0  0  0  0  0  0  0  0  0  0  0  0
    4.1036   -1.3022    0.1275 N   0  0  0  0  0  0  0  0  0  0  0  0
    4.8039   -1.0525    1.2102 N   0  0  0  0  0  0  0  0  0  0  0  0
    4.1702   -0.0954    1.8983 N   0  0  0  0  0  0  0  0  0  0  0  0
    3.0771    0.2373    1.2276 N   0  0  0  0  0  0  0  0  0  0  0  0
   -2.0479    0.8230    1.3685 C   0  0  0  0  0  0  0  0  0  0  0  0
   -3.0623   -0.1912    1.2281 N   0  0  0  0  0  0  0  0  0  0  0  0
   -2.0219   -1.6666    0.2438 H   0  0  0  0  0  0  0  0  0  0  0  0
   -3.6672   -1.2797   -0.5161 H   0  0  0  0  0  0  0  0  0  0  0  0
   -1.5364   -0.3045   -1.6838 H   0  0  0  0  0  0  0  0  0  0  0  0
   -2.8775    0.8999   -1.2087 H   0  0  0  0  0  0  0  0  0  0  0  0
   -1.0027    1.8309   -0.2284 H   0  0  0  0  0  0  0  0  0  0  0  0
    0.0610   -0.7711    0.6955 H   0  0  0  0  0  0  0  0  0  0  0  0
    0.3114    0.2524   -1.8761 H   0  0  0  0  0  0  0  0  0  0  0  0
    1.1794    1.4134   -0.8816 H   0  0  0  0  0  0  0  0  0  0  0  0
    1.7722   -1.6387   -1.1572 H   0  0  0  0  0  0  0  0  0  0  0  0
    2.6601   -0.3245   -1.9226 H   0  0  0  0  0  0  0  0  0  0  0  0
    2.3867    0.9560    1.5161 H   0  0  0  0  0  0  0  0  0  0  0  0
   -1.4955    0.7877    2.3163 H   0  0  0  0  0  0  0  0  0  0  0  0
   -2.6059    1.8075    1.3471 H   0  0  0  0  0  0  0  0  0  0  0  0
   -4.0350    0.1824    1.2028 H   0  0  0  0  0  0  0  0  0  0  0  0
  1  2  1  0
  2  3  1  0
  3  4  1  0
  4  5  1  0
  5  6  1  0
  6  7  1  0
  7  8  2  0
  8  9  1  0
  9 10  2  0
 10 11  1  0
  3 12  1  0
 12 13  1  0
 13  1  1  0
 11  7  1  0
  1 14  1  0
  1 15  1  0
  2 16  1  0
  2 17  1  0
  3 18  1  6
  4 19  1  0
  5 20  1  0
  5 21  1  0
  6 22  1  0
  6 23  1  0
 11 24  1  0
 12 25  1  0
 12 26  1  0
 13 27  1  0
M  END
$$$$

     RDKit          3D

 27 28  0  0  0  0  0  0  0  0999 V2000
   -3.4720   -0.2396   -0.2300 C   0  0  0  0  0  0  0  0  0  0  0  0
   -2.1989   -1.0597   -0.3318 C   0  0  0  0  0  0  0  0  0  0  0  0
   -1.2112   -0.0298   -0.8049 C   0  0  2  0  0  0  0  0  0  0  0  0
    0.1425   -0.3686   -0.6653 N   0  0  0  0  0  0  0  0  0  0  0  0
    0.6440   -0.5766    0.6409 C   0  0  0  0  0  0  0  0  0  0  0  0
    2.1161   -0.9269    0.6065 C   0  0  0  0  0  0  0  0  0  0  0  0
    2.9518    0.1270    0.0031 C   0  0  0  0  0  0  0  0  0  0  0  0
    2.5524    1.3063   -0.4910 N   0  0  0  0  0  0  0  0  0  0  0  0
    3.5956    1.9753   -0.9436 N   0  0  0  0  0  0  0  0  0  0  0  0
    4.6453    1.2105   -0.7305 N   0  0  0  0  0  0  0  0  0  0  0  0
    4.2737    0.0647   -0.1466 N   0  0  0  0  0  0  0  0  0  0  0  0
   -1.6638    1.1896   -0.0570 C   0  0  0  0  0  0  0  0  0  0  0  0
   -3.1069    1.1422   -0.3501 N   0  0  0  0  0  0  0  0  0  0  0  0
   -3.9883   -0.4103    0.7483 H   0  0  0  0  0  0  0  0  0  0  0  0
   -4.1815   -0.5043   -1.0583 H   0  0  0  0  0  0  0  0  0  0  0  0
   -2.2936   -1.8692   -1.0773 H   0  0  0  0  0  0  0  0  0  0  0  0
   -1.9785   -1.4272    0.6935 H   0  0  0  0  0  0  0  0  0  0  0  0
   -1.4336    0.1506   -1.8816 H   0  0  0  0  0  0  0  0  0  0  0  0
    0.7507    0.0556   -1.3641 H   0  0  0  0  0  0  0  0  0  0  0  0
    0.1309   -1.4756    1.0674 H   0  0  0  0  0  0  0  0  0  0  0  0
    0.5254    0.3082    1.3057 H   0  0  0  0  0  0  0  0  0  0  0  0
    2.2086   -1.8767    0.0380 H   0  0  0  0  0  0  0  0  0  0  0  0
    2.5021   -1.0931    1.6555 H   0  0  0  0  0  0  0  0  0  0  0  0
    4.9568   -0.6798    0.1076 H   0  0  0  0  0  0  0  0  0  0  0  0
   -1.2301    2.1290   -0.4477 H   0  0  0  0  0  0  0  0  0  0  0  0
   -1.5884    1.0913    1.0422 H   0  0  0  0  0  0  0  0  0  0  0  0
   -3.6493    1.7874    0.2396 H   0  0  0  0  0  0  0  0  0  0  0  0
  1  2  1  0
  2  3  1  0
  3  4  1  0
  4  5  1  0
  5  6  1  0
  6  7  1  0
  7  8  2  0
  8  9  1  0
  9 10  2  0
 10 11  1  0
  3 12  1  0
 12 13  1  0
 13  1  1  0
 11  7  1  0
  1 14  1  0
  1 15  1  0
  2 16  1  0
  2 17  1  0
  3 18  1  6
  4 19  1  0
  5 20  1  0
  5 21  1  0
  6 22  1  0
  6 23  1  0
 11 24  1  0
 12 25  1  0
 12 26  1  0
 13 27  1  0
M  END
$$$$

     RDKit          3D

 27 28  0  0  0  0  0  0  0  0999 V2000
   -2.1152    1.3191   -0.2565 C   0  0  0  0  0  0  0  0  0  0  0  0
   -2.1102    0.0244    0.5467 C   0  0  0  0  0  0  0  0  0  0  0  0
   -1.4657   -0.9326   -0.3936 C   0  0  2  0  0  0  0  0  0  0  0  0
   -0.0305   -0.9128   -0.4233 N   0  0  0  0  0  0  0  0  0  0  0  0
    0.5719   -1.2891    0.8151 C   0  0  0  0  0  0  0  0  0  0  0  0
    2.0666   -1.3248    0.7927 C   0  0  0  0  0  0  0  0  0  0  0  0
    2.7199   -0.0521    0.4722 C   0  0  0  0  0  0  0  0  0  0  0  0
    3.0455    0.3781   -0.7748 N   0  0  0  0  0  0  0  0  0  0  0  0
    3.6217    1.5589   -0.6985 N   0  0  0  0  0  0  0  0  0  0  0  0
    3.6883    1.9236    0.5529 N   0  0  0  0  0  0  0  0  0  0  0  0
    3.1364    0.9397    1.2782 N   0  0  0  0  0  0  0  0  0  0  0  0
   -2.0214   -0.4765   -1.7371 C   0  0  0  0  0  0  0  0  0  0  0  0
   -2.4511    0.8728   -1.5707 N   0  0  0  0  0  0  0  0  0  0  0  0
   -2.9419    1.9393    0.1679 H   0  0  0  0  0  0  0  0  0  0  0  0
   -1.1681    1.8727   -0.1735 H   0  0  0  0  0  0  0  0  0  0  0  0
   -1.6662    0.1190    1.5339 H   0  0  0  0  0  0  0  0  0  0  0  0
   -3.1941   -0.2828    0.6124 H   0  0  0  0  0  0  0  0  0  0  0  0
   -1.8317   -1.9749   -0.1614 H   0  0  0  0  0  0  0  0  0  0  0  0
    0.3022    0.0056   -0.7898 H   0  0  0  0  0  0  0  0  0  0  0  0
    0.2039   -2.3199    1.0757 H   0  0  0  0  0  0  0  0  0  0  0  0
    0.2193   -0.5881    1.6193 H   0  0  0  0  0  0  0  0  0  0  0  0
    2.4118   -2.1764    0.1363 H   0  0  0  0  0  0  0  0  0  0  0  0
    2.4090   -1.6428    1.8193 H   0  0  0  0  0  0  0  0  0  0  0  0
    3.0543    0.9672    2.3231 H   0  0  0  0  0  0  0  0  0  0  0  0
   -1.3381   -0.6540   -2.5702 H   0  0  0  0  0  0  0  0  0  0  0  0
   -2.9554   -1.0874   -1.8987 H   0  0  0  0  0  0  0  0  0  0  0  0
   -2.1611    1.5358   -2.2974 H   0  0  0  0  0  0  0  0  0  0  0  0
  1  2  1  0
  2  3  1  0
  3  4  1  0
  4  5  1  0
  5  6  1  0
  6  7  1  0
  7  8  2  0
  8  9  1  0
  9 10  2  0
 10 11  1  0
  3 12  1  0
 12 13  1  0
 13  1  1  0
 11  7  1  0
  1 14  1  0
  1 15  1  0
  2 16  1  0
  2 17  1  0
  3 18  1  1
  4 19  1  0
  5 20  1  0
  5 21  1  0
  6 22  1  0
  6 23  1  0
 11 24  1  0
 12 25  1  0
 12 26  1  0
 13 27  1  0
M  END
$$$$

     RDKit          3D

 27 28  0  0  0  0  0  0  0  0999 V2000
   -3.4414   -0.2661   -0.4641 C   0  0  0  0  0  0  0  0  0  0  0  0
   -2.0732   -0.7926   -0.8833 C   0  0  0  0  0  0  0  0  0  0  0  0
   -1.2334    0.4629   -0.5432 C   0  0  2  0  0  0  0  0  0  0  0  0
    0.1156    0.1428   -0.7119 N   0  0  0  0  0  0  0  0  0  0  0  0
    0.7280   -0.8046    0.1147 C   0  0  0  0  0  0  0  0  0  0  0  0
    2.0796   -1.1303   -0.4876 C   0  0  0  0  0  0  0  0  0  0  0  0
    2.9652    0.0349   -0.6642 C   0  0  0  0  0  0  0  0  0  0  0  0
    3.0385    0.8314   -1.7591 N   0  0  0  0  0  0  0  0  0  0  0  0
    3.9726    1.7564   -1.5160 N   0  0  0  0  0  0  0  0  0  0  0  0
    4.4825    1.5643   -0.3121 N   0  0  0  0  0  0  0  0  0  0  0  0
    3.8526    0.4958    0.2103 N   0  0  0  0  0  0  0  0  0  0  0  0
   -1.7694    0.7774    0.7999 C   0  0  0  0  0  0  0  0  0  0  0  0
   -3.1423    0.2462    0.8457 N   0  0  0  0  0  0  0  0  0  0  0  0
   -3.7021    0.5636   -1.1318 H   0  0  0  0  0  0  0  0  0  0  0  0
   -4.1788   -1.0674   -0.4304 H   0  0  0  0  0  0  0  0  0  0  0  0
   -1.9955   -1.0539   -1.9323 H   0  0  0  0  0  0  0  0  0  0  0  0
   -1.7504   -1.5766   -0.1843 H   0  0  0  0  0  0  0  0  0  0  0  0
   -1.5527    1.2296   -1.2609 H   0  0  0  0  0  0  0  0  0  0  0  0
    0.7407    1.0101   -0.7425 H   0  0  0  0  0  0  0  0  0  0  0  0
    0.2087   -1.7331    0.3116 H   0  0  0  0  0  0  0  0  0  0  0  0
    0.9328   -0.3356    1.1201 H   0  0  0  0  0  0  0  0  0  0  0  0
    2.6420   -1.8627    0.1610 H   0  0  0  0  0  0  0  0  0  0  0  0
    1.9658   -1.7136   -1.4556 H   0  0  0  0  0  0  0  0  0  0  0  0
    4.0317    0.0855    1.1563 H   0  0  0  0  0  0  0  0  0  0  0  0
   -1.2603    0.3238    1.6658 H   0  0  0  0  0  0  0  0  0  0  0  0
   -1.8553    1.8854    0.9422 H   0  0  0  0  0  0  0  0  0  0  0  0
   -3.8016    0.9264    1.2356 H   0  0  0  0  0  0  0  0  0  0  0  0
  1  2  1  0
  2  3  1  0
  3  4  1  0
  4  5  1  0
  5  6  1  0
  6  7  1  0
  7  8  2  0
  8  9  1  0
  9 10  2  0
 10 11  1  0
  3 12  1  0
 12 13  1  0
 13  1  1  0
 11  7  1  0
  1 14  1  0
  1 15  1  0
  2 16  1  0
  2 17  1  0
  3 18  1  6
  4 19  1  0
  5 20  1  0
  5 21  1  0
  6 22  1  0
  6 23  1  0
 11 24  1  0
 12 25  1  0
 12 26  1  0
 13 27  1  0
M  END
$$$$

     RDKit          3D

 27 28  0  0  0  0  0  0  0  0999 V2000
   -3.5154    0.3623    0.1520 C   0  0  0  0  0  0  0  0  0  0  0  0
   -2.2620    0.3447    1.0072 C   0  0  0  0  0  0  0  0  0  0  0  0
   -1.2851   -0.2530   -0.0158 C   0  0  2  0  0  0  0  0  0  0  0  0
    0.0592   -0.1961    0.4313 N   0  0  0  0  0  0  0  0  0  0  0  0
    0.8970   -0.9960   -0.4423 C   0  0  0  0  0  0  0  0  0  0  0  0
    2.2611   -1.2568    0.0728 C   0  0  0  0  0  0  0  0  0  0  0  0
    3.0562   -0.0533    0.3126 C   0  0  0  0  0  0  0  0  0  0  0  0
    3.0703    0.6634    1.4501 N   0  0  0  0  0  0  0  0  0  0  0  0
    3.9310    1.6265    1.2603 N   0  0  0  0  0  0  0  0  0  0  0  0
    4.4436    1.5176    0.0378 N   0  0  0  0  0  0  0  0  0  0  0  0
    3.9159    0.4786   -0.5733 N   0  0  0  0  0  0  0  0  0  0  0  0
   -1.6342    0.5645   -1.2327 C   0  0  0  0  0  0  0  0  0  0  0  0
   -3.0908    0.5147   -1.2108 N   0  0  0  0  0  0  0  0  0  0  0  0
   -4.2617    1.1144    0.4888 H   0  0  0  0  0  0  0  0  0  0  0  0
   -3.9294   -0.6822    0.2405 H   0  0  0  0  0  0  0  0  0  0  0  0
   -1.9783    1.3986    1.2050 H   0  0  0  0  0  0  0  0  0  0  0  0
   -2.3270   -0.2870    1.8887 H   0  0  0  0  0  0  0  0  0  0  0  0
   -1.6610   -1.3044   -0.1380 H   0  0  0  0  0  0  0  0  0  0  0  0
    0.1212   -0.4621    1.4220 H   0  0  0  0  0  0  0  0  0  0  0  0
    0.3773   -1.9957   -0.5376 H   0  0  0  0  0  0  0  0  0  0  0  0
    0.8873   -0.4853   -1.4340 H   0  0  0  0  0  0  0  0  0  0  0  0
    2.7558   -1.9582   -0.6469 H   0  0  0  0  0  0  0  0  0  0  0  0
    2.1374   -1.8772    1.0065 H   0  0  0  0  0  0  0  0  0  0  0  0
    4.1571    0.1675   -1.5440 H   0  0  0  0  0  0  0  0  0  0  0  0
   -1.2262    0.1585   -2.1758 H   0  0  0  0  0  0  0  0  0  0  0  0
   -1.3481    1.6173   -1.0631 H   0  0  0  0  0  0  0  0  0  0  0  0
   -3.5511    1.2786   -1.7247 H   0  0  0  0  0  0  0  0  0  0  0  0
  1  2  1  0
  2  3  1  0
  3  4  1  0
  4  5  1  0
  5  6  1  0
  6  7  1  0
  7  8  2  0
  8  9  1  0
  9 10  2  0
 10 11  1  0
  3 12  1  0
 12 13  1  0
 13  1  1  0
 11  7  1  0
  1 14  1  0
  1 15  1  0
  2 16  1  0
  2 17  1  0
  3 18  1  6
  4 19  1  0
  5 20  1  0
  5 21  1  0
  6 22  1  0
  6 23  1  0
 11 24  1  0
 12 25  1  0
 12 26  1  0
 13 27  1  0
M  END
$$$$

     RDKit          3D

 27 28  0  0  0  0  0  0  0  0999 V2000
   -3.0955    0.2975    0.8394 C   0  0  0  0  0  0  0  0  0  0  0  0
   -1.5782    0.0817    0.9425 C   0  0  0  0  0  0  0  0  0  0  0  0
   -1.2904   -0.0878   -0.5309 C   0  0  2  0  0  0  0  0  0  0  0  0
    0.1031   -0.0740   -0.8045 N   0  0  0  0  0  0  0  0  0  0  0  0
    0.7286   -1.1966   -0.1416 C   0  0  0  0  0  0  0  0  0  0  0  0
    2.2134   -1.2741   -0.4403 C   0  0  0  0  0  0  0  0  0  0  0  0
    2.9274   -0.0698    0.0048 C   0  0  0  0  0  0  0  0  0  0  0  0
    3.1336    1.0383   -0.7095 N   0  0  0  0  0  0  0  0  0  0  0  0
    3.8227    1.8626    0.0684 N   0  0  0  0  0  0  0  0  0  0  0  0
    4.0376    1.2888    1.2248 N   0  0  0  0  0  0  0  0  0  0  0  0
    3.4924    0.0939    1.2049 N   0  0  0  0  0  0  0  0  0  0  0  0
   -1.9972    1.1812   -1.0197 C   0  0  0  0  0  0  0  0  0  0  0  0
   -3.2542    1.1713   -0.3039 N   0  0  0  0  0  0  0  0  0  0  0  0
   -3.5302   -0.7226    0.6199 H   0  0  0  0  0  0  0  0  0  0  0  0
   -3.5098    0.6601    1.7726 H   0  0  0  0  0  0  0  0  0  0  0  0
   -1.3350   -0.7768    1.5626 H   0  0  0  0  0  0  0  0  0  0  0  0
   -1.1714    1.0489    1.2682 H   0  0  0  0  0  0  0  0  0  0  0  0
   -1.8345   -0.9421   -0.9701 H   0  0  0  0  0  0  0  0  0  0  0  0
    0.2978   -0.1643   -1.8199 H   0  0  0  0  0  0  0  0  0  0  0  0
    0.5668   -1.0688    0.9615 H   0  0  0  0  0  0  0  0  0  0  0  0
    0.2583   -2.1477   -0.4556 H   0  0  0  0  0  0  0  0  0  0  0  0
    2.6137   -2.1477    0.1224 H   0  0  0  0  0  0  0  0  0  0  0  0
    2.3625   -1.5281   -1.5185 H   0  0  0  0  0  0  0  0  0  0  0  0
    3.5124   -0.5864    2.0019 H   0  0  0  0  0  0  0  0  0  0  0  0
   -2.0864    1.2424   -2.1042 H   0  0  0  0  0  0  0  0  0  0  0  0
   -1.4275    2.0693   -0.6130 H   0  0  0  0  0  0  0  0  0  0  0  0
   -3.9600    0.7508   -0.9542 H   0  0  0  0  0  0  0  0  0  0  0  0
  1  2  1  0
  2  3  1  0
  3  4  1  0
  4  5  1  0
  5  6  1  0
  6  7  1  0
  7  8  2  0
  8  9  1  0
  9 10  2  0
 10 11  1  0
  3 12  1  0
 12 13  1  0
 13  1  1  0
 11  7  1  0
  1 14  1  0
  1 15  1  0
  2 16  1  0
  2 17  1  0
  3 18  1  6
  4 19  1  0
  5 20  1  0
  5 21  1  0
  6 22  1  0
  6 23  1  0
 11 24  1  0
 12 25  1  0
 12 26  1  0
 13 27  1  0
M  END
$$$$

     RDKit          3D

 27 28  0  0  0  0  0  0  0  0999 V2000
   -2.8697   -0.2262    0.9873 C   0  0  0  0  0  0  0  0  0  0  0  0
   -1.6168   -1.0353    0.5975 C   0  0  0  0  0  0  0  0  0  0  0  0
   -1.2200   -0.2441   -0.6405 C   0  0  2  0  0  0  0  0  0  0  0  0
   -0.5367    0.9368   -0.2630 N   0  0  0  0  0  0  0  0  0  0  0  0
    0.7170    0.7251    0.3517 C   0  0  0  0  0  0  0  0  0  0  0  0
    1.7663    0.2099   -0.6331 C   0  0  0  0  0  0  0  0  0  0  0  0
    3.0414   -0.0178    0.0454 C   0  0  0  0  0  0  0  0  0  0  0  0
    3.4561   -1.1776    0.6347 N   0  0  0  0  0  0  0  0  0  0  0  0
    4.6553   -0.9309    1.1069 N   0  0  0  0  0  0  0  0  0  0  0  0
    5.0095    0.3330    0.8372 N   0  0  0  0  0  0  0  0  0  0  0  0
    4.0268    0.9101    0.1841 N   0  0  0  0  0  0  0  0  0  0  0  0
   -2.5777    0.0066   -1.2773 C   0  0  0  0  0  0  0  0  0  0  0  0
   -3.5873   -0.2465   -0.2887 N   0  0  0  0  0  0  0  0  0  0  0  0
   -2.5164    0.7895    1.2310 H   0  0  0  0  0  0  0  0  0  0  0  0
   -3.4289   -0.6880    1.8006 H   0  0  0  0  0  0  0  0  0  0  0  0
   -0.9067   -1.0420    1.4032 H   0  0  0  0  0  0  0  0  0  0  0  0
   -1.9020   -2.0723    0.2854 H   0  0  0  0  0  0  0  0  0  0  0  0
   -0.5763   -0.8672   -1.3024 H   0  0  0  0  0  0  0  0  0  0  0  0
   -0.6748    1.7881   -0.8105 H   0  0  0  0  0  0  0  0  0  0  0  0
    0.6699    0.0532    1.2176 H   0  0  0  0  0  0  0  0  0  0  0  0
    1.0620    1.7103    0.7740 H   0  0  0  0  0  0  0  0  0  0  0  0
    1.3801   -0.7547   -1.0324 H   0  0  0  0  0  0  0  0  0  0  0  0
    1.8876    0.9465   -1.4646 H   0  0  0  0  0  0  0  0  0  0  0  0
    4.0092    1.8826   -0.1556 H   0  0  0  0  0  0  0  0  0  0  0  0
   -2.6734   -0.7576   -2.0894 H   0  0  0  0  0  0  0  0  0  0  0  0
   -2.6247    0.9938   -1.7360 H   0  0  0  0  0  0  0  0  0  0  0  0
   -3.9697   -1.2253   -0.3991 H   0  0  0  0  0  0  0  0  0  0  0  0
  1  2  1  0
  2  3  1  0
  3  4  1  0
  4  5  1  0
  5  6  1  0
  6  7  1  0
  7  8  2  0
  8  9  1  0
  9 10  2  0
 10 11  1  0
  3 12  1  0
 12 13  1  0
 13  1  1  0
 11  7  1  0
  1 14  1  0
  1 15  1  0
  2 16  1  0
  2 17  1  0
  3 18  1  6
  4 19  1  0
  5 20  1  0
  5 21  1  0
  6 22  1  0
  6 23  1  0
 11 24  1  0
 12 25  1  0
 12 26  1  0
 13 27  1  0
M  END
$$$$
