
     RDKit          3D

 31 32  0  0  0  0  0  0  0  0999 V2000
   -3.2064   -0.7333   -0.7536 C   0  0  0  0  0  0  0  0  0  0  0  0
   -1.7729   -0.2652   -1.0433 C   0  0  0  0  0  0  0  0  0  0  0  0
   -1.1571    0.0847    0.2709 C   0  0  2  0  0  0  0  0  0  0  0  0
   -1.1503   -1.1133    1.1552 C   0  0  0  0  0  0  0  0  0  0  0  0
   -2.0095    1.1160    0.8825 N   0  0  0  0  0  0  0  0  0  0  0  0
    0.2176    0.6477    0.1807 C   0  0  2  0  0  0  0  0  0  0  0  0
    0.2585    1.8850   -0.6080 N   0  0  0  0  0  0  0  0  0  0  0  0
    1.6480    2.1123   -0.6163 N   0  0  0  0  0  0  0  0  0  0  0  0
    2.1699    0.8187   -0.9181 C   0  0  1  0  0  0  0  0  0  0  0  0
    3.3390    0.4832   -0.0924 N   0  0  0  0  0  0  0  0  0  0  0  0
    3.2063   -0.9645   -0.0745 C   0  0  0  0  0  0  0  0  0  0  0  0
    1.8013   -1.1110    0.2523 N   0  0  0  0  0  0  0  0  0  0  0  0
    1.1628   -0.1597   -0.5156 N   0  0  0  0  0  0  0  0  0  0  0  0
   -3.7430   -0.8745   -1.7061 H   0  0  0  0  0  0  0  0  0  0  0  0
   -3.2263   -1.6348   -0.1346 H   0  0  0  0  0  0  0  0  0  0  0  0
   -3.7049    0.1453   -0.2505 H   0  0  0  0  0  0  0  0  0  0  0  0
   -1.2461   -1.1037   -1.5523 H   0  0  0  0  0  0  0  0  0  0  0  0
   -1.8773    0.5940   -1.7355 H   0  0  0  0  0  0  0  0  0  0  0  0
   -0.4445   -1.0226    2.0213 H   0  0  0  0  0  0  0  0  0  0  0  0
   -2.1685   -1.2173    1.6323 H   0  0  0  0  0  0  0  0  0  0  0  0
   -1.0040   -2.0790    0.6067 H   0  0  0  0  0  0  0  0  0  0  0  0
   -2.4533    0.7537    1.7514 H   0  0  0  0  0  0  0  0  0  0  0  0
   -1.5102    2.0085    1.0116 H   0  0  0  0  0  0  0  0  0  0  0  0
    0.5691    0.8755    1.2021 H   0  0  0  0  0  0  0  0  0  0  0  0
    0.0247    1.5908   -1.5987 H   0  0  0  0  0  0  0  0  0  0  0  0
    1.9787    2.5267    0.2637 H   0  0  0  0  0  0  0  0  0  0  0  0
    2.4562    0.6737   -1.9687 H   0  0  0  0  0  0  0  0  0  0  0  0
    3.0844    0.8122    0.8789 H   0  0  0  0  0  0  0  0  0  0  0  0
    3.3481   -1.3246   -1.1052 H   0  0  0  0  0  0  0  0  0  0  0  0
    3.8726   -1.4400    0.6648 H   0  0  0  0  0  0  0  0  0  0  0  0
    1.5368   -2.0845    0.0242 H   0  0  0  0  0  0  0  0  0  0  0  0
  1  2  1  0
  2  3  1  0
  3  4  1  0
  3  5  1  1
  3  6  1  0
  6  7  1  0
  7  8  1  0
  8  9  1  0
  9 10  1  0
 10 11  1  0
 11 12  1  0
 12 13  1  0
 13  6  1  0
 13  9  1  0
  1 14  1  0
  1 15  1  0
  1 16  1  0
  2 17  1  0
  2 18  1  0
  4 19  1  0
  4 20  1  0
  4 21  1  0
  5 22  1  0
  5 23  1  0
  6 24  1  1
  7 25  1  0
  8 26  1  0
  9 27  1  6
 10 28  1  0
 11 29  1  0
 11 30  1  0
 12 31  1  0
M  END
$$$$

     RDKit          3D

 31 32  0  0  0  0  0  0  0  0999 V2000
    2.2967   -0.1250   -1.4584 C   0  0  0  0  0  0  0  0  0  0  0  0
    2.0170    0.6144   -0.2005 C   0  0  0  0  0  0  0  0  0  0  0  0
    1.2201   -0.1545    0.8127 C   0  0  2  0  0  0  0  0  0  0  0  0
    1.0443    0.7773    2.0212 C   0  0  0  0  0  0  0  0  0  0  0  0
    1.9208   -1.3031    1.2817 N   0  0  0  0  0  0  0  0  0  0  0  0
   -0.1471   -0.5234    0.3016 C   0  0  2  0  0  0  0  0  0  0  0  0
   -0.0285   -1.3398   -0.8744 N   0  0  0  0  0  0  0  0  0  0  0  0
   -1.1048   -1.0473   -1.7036 N   0  0  0  0  0  0  0  0  0  0  0  0
   -1.6593    0.2119   -1.2697 C   0  0  1  0  0  0  0  0  0  0  0  0
   -3.0491    0.0855   -0.8408 N   0  0  0  0  0  0  0  0  0  0  0  0
   -3.1198    1.1796    0.1379 C   0  0  0  0  0  0  0  0  0  0  0  0
   -1.8885    0.9334    0.8882 N   0  0  0  0  0  0  0  0  0  0  0  0
   -0.9294    0.6124   -0.0832 N   0  0  0  0  0  0  0  0  0  0  0  0
    3.1776    0.3794   -1.9554 H   0  0  0  0  0  0  0  0  0  0  0  0
    2.6209   -1.1736   -1.3088 H   0  0  0  0  0  0  0  0  0  0  0  0
    1.4741   -0.0423   -2.2064 H   0  0  0  0  0  0  0  0  0  0  0  0
    2.9752    0.9492    0.2455 H   0  0  0  0  0  0  0  0  0  0  0  0
    1.4720    1.5540   -0.4718 H   0  0  0  0  0  0  0  0  0  0  0  0
    0.9927    1.8323    1.7152 H   0  0  0  0  0  0  0  0  0  0  0  0
    1.9575    0.6743    2.6541 H   0  0  0  0  0  0  0  0  0  0  0  0
    0.1917    0.4435    2.6401 H   0  0  0  0  0  0  0  0  0  0  0  0
    1.3352   -1.9925    1.7592 H   0  0  0  0  0  0  0  0  0  0  0  0
    2.6604   -1.6647    0.6707 H   0  0  0  0  0  0  0  0  0  0  0  0
   -0.6864   -1.0634    1.0980 H   0  0  0  0  0  0  0  0  0  0  0  0
    0.0081   -2.3325   -0.5986 H   0  0  0  0  0  0  0  0  0  0  0  0
   -0.7711   -0.9434   -2.6758 H   0  0  0  0  0  0  0  0  0  0  0  0
   -1.6399    0.9780   -2.0605 H   0  0  0  0  0  0  0  0  0  0  0  0
   -3.2065   -0.8212   -0.3334 H   0  0  0  0  0  0  0  0  0  0  0  0
   -4.0005    1.0865    0.7711 H   0  0  0  0  0  0  0  0  0  0  0  0
   -3.0544    2.1156   -0.4418 H   0  0  0  0  0  0  0  0  0  0  0  0
   -2.0790    0.0996    1.4859 H   0  0  0  0  0  0  0  0  0  0  0  0
  1  2  1  0
  2  3  1  0
  3  4  1  0
  3  5  1  1
  3  6  1  0
  6  7  1  0
  7  8  1  0
  8  9  1  0
  9 10  1  0
 10 11  1  0
 11 12  1  0
 12 13  1  0
 13  6  1  0
 13  9  1  0
  1 14  1  0
  1 15  1  0
  1 16  1  0
  2 17  1  0
  2 18  1  0
  4 19  1  0
  4 20  1  0
  4 21  1  0
  5 22  1  0
  5 23  1  0
  6 24  1  1
  7 25  1  0
  8 26  1  0
  9 27  1  6
 10 28  1  0
 11 29  1  0
 11 30  1  0
 12 31  1  0
M  END
$$$$

     RDKit          3D

 31 32  0  0  0  0  0  0  0  0999 V2000
   -2.9985    0.6234   -1.0469 C   0  0  0  0  0  0  0  0  0  0  0  0
   -1.5012    0.6437   -0.7491 C   0  0  0  0  0  0  0  0  0  0  0  0
   -1.2153   -0.3835    0.3103 C   0  0  2  0  0  0  0  0  0  0  0  0
   -1.6250   -1.7300   -0.1955 C   0  0  0  0  0  0  0  0  0  0  0  0
   -2.1035   -0.0689    1.4430 N   0  0  0  0  0  0  0  0  0  0  0  0
    0.1772   -0.3183    0.8408 C   0  0  2  0  0  0  0  0  0  0  0  0
    0.3829    0.9934    1.4196 N   0  0  0  0  0  0  0  0  0  0  0  0
    1.4699    1.5667    0.7763 N   0  0  0  0  0  0  0  0  0  0  0  0
    1.6880    0.8299   -0.4389 C   0  0  1  0  0  0  0  0  0  0  0  0
    3.1252    0.7097   -0.6246 N   0  0  0  0  0  0  0  0  0  0  0  0
    3.4380   -0.6888   -0.3179 C   0  0  0  0  0  0  0  0  0  0  0  0
    2.3066   -1.0716    0.5037 N   0  0  0  0  0  0  0  0  0  0  0  0
    1.1996   -0.5056   -0.1482 N   0  0  0  0  0  0  0  0  0  0  0  0
   -3.2978    1.5398   -1.5573 H   0  0  0  0  0  0  0  0  0  0  0  0
   -3.5416    0.5900   -0.0787 H   0  0  0  0  0  0  0  0  0  0  0  0
   -3.2504   -0.2940   -1.6218 H   0  0  0  0  0  0  0  0  0  0  0  0
   -1.0042    0.4056   -1.7161 H   0  0  0  0  0  0  0  0  0  0  0  0
   -1.2492    1.6442   -0.3879 H   0  0  0  0  0  0  0  0  0  0  0  0
   -2.7403   -1.7837   -0.1316 H   0  0  0  0  0  0  0  0  0  0  0  0
   -1.3923   -1.8711   -1.2895 H   0  0  0  0  0  0  0  0  0  0  0  0
   -1.2276   -2.5696    0.3997 H   0  0  0  0  0  0  0  0  0  0  0  0
   -2.0179   -0.8766    2.0959 H   0  0  0  0  0  0  0  0  0  0  0  0
   -1.6348    0.7368    1.9342 H   0  0  0  0  0  0  0  0  0  0  0  0
    0.2844   -1.1144    1.6085 H   0  0  0  0  0  0  0  0  0  0  0  0
    0.5559    0.8677    2.4512 H   0  0  0  0  0  0  0  0  0  0  0  0
    1.2998    2.5869    0.6230 H   0  0  0  0  0  0  0  0  0  0  0  0
    1.1942    1.2847   -1.3184 H   0  0  0  0  0  0  0  0  0  0  0  0
    3.3994    0.8788   -1.6200 H   0  0  0  0  0  0  0  0  0  0  0  0
    4.3923   -0.7618    0.2480 H   0  0  0  0  0  0  0  0  0  0  0  0
    3.4776   -1.3077   -1.2263 H   0  0  0  0  0  0  0  0  0  0  0  0
    2.4084   -0.5556    1.4145 H   0  0  0  0  0  0  0  0  0  0  0  0
  1  2  1  0
  2  3  1  0
  3  4  1  0
  3  5  1  1
  3  6  1  0
  6  7  1  0
  7  8  1  0
  8  9  1  0
  9 10  1  0
 10 11  1  0
 11 12  1  0
 12 13  1  0
 13  6  1  0
 13  9  1  0
  1 14  1  0
  1 15  1  0
  1 16  1  0
  2 17  1  0
  2 18  1  0
  4 19  1  0
  4 20  1  0
  4 21  1  0
  5 22  1  0
  5 23  1  0
  6 24  1  1
  7 25  1  0
  8 26  1  0
  9 27  1  6
 10 28  1  0
 11 29  1  0
 11 30  1  0
 12 31  1  0
M  END
$$$$

     RDKit          3D

 31 32  0  0  0  0  0  0  0  0999 V2000
    2.7963   -0.2223   -1.3638 C   0  0  0  0  0  0  0  0  0  0  0  0
    2.3753   -0.8612   -0.0641 C   0  0  0  0  0  0  0  0  0  0  0  0
    1.2078   -0.1912    0.5974 C   0  0  2  0  0  0  0  0  0  0  0  0
    1.5132    1.2435    0.9138 C   0  0  0  0  0  0  0  0  0  0  0  0
    1.0430   -0.8536    1.9050 N   0  0  0  0  0  0  0  0  0  0  0  0
   -0.0624   -0.4083   -0.1486 C   0  0  2  0  0  0  0  0  0  0  0  0
   -0.0902    0.0725   -1.4921 N   0  0  0  0  0  0  0  0  0  0  0  0
   -1.4846    0.1663   -1.7453 N   0  0  0  0  0  0  0  0  0  0  0  0
   -1.9441    0.8804   -0.5944 C   0  0  1  0  0  0  0  0  0  0  0  0
   -3.3414    0.6270   -0.3002 N   0  0  0  0  0  0  0  0  0  0  0  0
   -3.2972    0.0793    1.0404 C   0  0  0  0  0  0  0  0  0  0  0  0
   -2.0294   -0.6533    1.0110 N   0  0  0  0  0  0  0  0  0  0  0  0
   -1.1752    0.3036    0.4788 N   0  0  0  0  0  0  0  0  0  0  0  0
    3.8901   -0.0035   -1.3794 H   0  0  0  0  0  0  0  0  0  0  0  0
    2.1991    0.6849   -1.5962 H   0  0  0  0  0  0  0  0  0  0  0  0
    2.6332   -0.9518   -2.1805 H   0  0  0  0  0  0  0  0  0  0  0  0
    3.2746   -0.8484    0.6101 H   0  0  0  0  0  0  0  0  0  0  0  0
    2.1780   -1.9511   -0.2236 H   0  0  0  0  0  0  0  0  0  0  0  0
    0.9521    1.5852    1.8019 H   0  0  0  0  0  0  0  0  0  0  0  0
    2.5960    1.3054    1.1584 H   0  0  0  0  0  0  0  0  0  0  0  0
    1.3115    1.9331    0.0562 H   0  0  0  0  0  0  0  0  0  0  0  0
    0.1852   -0.4607    2.3182 H   0  0  0  0  0  0  0  0  0  0  0  0
    1.8931   -0.7579    2.4868 H   0  0  0  0  0  0  0  0  0  0  0  0
   -0.2543   -1.5040   -0.1825 H   0  0  0  0  0  0  0  0  0  0  0  0
    0.2643   -0.6155   -2.1944 H   0  0  0  0  0  0  0  0  0  0  0  0
   -1.6710    0.6467   -2.6478 H   0  0  0  0  0  0  0  0  0  0  0  0
   -1.7777    1.9585   -0.6313 H   0  0  0  0  0  0  0  0  0  0  0  0
   -3.6617   -0.1086   -0.9891 H   0  0  0  0  0  0  0  0  0  0  0  0
   -4.1388   -0.6000    1.2598 H   0  0  0  0  0  0  0  0  0  0  0  0
   -3.2399    0.9348    1.7584 H   0  0  0  0  0  0  0  0  0  0  0  0
   -2.1449   -1.4300    0.3373 H   0  0  0  0  0  0  0  0  0  0  0  0
  1  2  1  0
  2  3  1  0
  3  4  1  0
  3  5  1  1
  3  6  1  0
  6  7  1  0
  7  8  1  0
  8  9  1  0
  9 10  1  0
 10 11  1  0
 11 12  1  0
 12 13  1  0
 13  6  1  0
 13  9  1  0
  1 14  1  0
  1 15  1  0
  1 16  1  0
  2 17  1  0
  2 18  1  0
  4 19  1  0
  4 20  1  0
  4 21  1  0
  5 22  1  0
  5 23  1  0
  6 24  1  6
  7 25  1  0
  8 26  1  0
  9 27  1  6
 10 28  1  0
 11 29  1  0
 11 30  1  0
 12 31  1  0
M  END
$$$$

     RDKit          3D

 31 32  0  0  0  0  0  0  0  0999 V2000
   -2.3123    1.7292    0.5583 C   0  0  0  0  0  0  0  0  0  0  0  0
   -2.3738    0.4717   -0.2755 C   0  0  0  0  0  0  0  0  0  0  0  0
   -1.2594   -0.4489    0.1273 C   0  0  2  0  0  0  0  0  0  0  0  0
   -1.3663   -1.6979   -0.7410 C   0  0  0  0  0  0  0  0  0  0  0  0
   -1.4237   -0.8087    1.5021 N   0  0  0  0  0  0  0  0  0  0  0  0
    0.0822    0.1736   -0.1766 C   0  0  2  0  0  0  0  0  0  0  0  0
    0.1714    0.4305   -1.5912 N   0  0  0  0  0  0  0  0  0  0  0  0
    1.5501    0.6101   -1.7755 N   0  0  0  0  0  0  0  0  0  0  0  0
    2.1275   -0.3988   -0.9442 C   0  0  1  0  0  0  0  0  0  0  0  0
    3.2596    0.1369   -0.2246 N   0  0  0  0  0  0  0  0  0  0  0  0
    2.7509    0.3961    1.1072 C   0  0  0  0  0  0  0  0  0  0  0  0
    1.7630   -0.6527    1.2659 N   0  0  0  0  0  0  0  0  0  0  0  0
    1.1484   -0.7869    0.0251 N   0  0  0  0  0  0  0  0  0  0  0  0
   -2.2422    2.6483   -0.0722 H   0  0  0  0  0  0  0  0  0  0  0  0
   -3.2482    1.7947    1.1652 H   0  0  0  0  0  0  0  0  0  0  0  0
   -1.4644    1.7354    1.2452 H   0  0  0  0  0  0  0  0  0  0  0  0
   -3.3499   -0.0405   -0.1404 H   0  0  0  0  0  0  0  0  0  0  0  0
   -2.3235    0.7510   -1.3489 H   0  0  0  0  0  0  0  0  0  0  0  0
   -0.6359   -2.4203   -0.3636 H   0  0  0  0  0  0  0  0  0  0  0  0
   -2.3983   -2.0832   -0.7624 H   0  0  0  0  0  0  0  0  0  0  0  0
   -1.0619   -1.3907   -1.7660 H   0  0  0  0  0  0  0  0  0  0  0  0
   -1.3025   -1.8385    1.6547 H   0  0  0  0  0  0  0  0  0  0  0  0
   -2.3957   -0.5925    1.8220 H   0  0  0  0  0  0  0  0  0  0  0  0
    0.2704    1.1055    0.3763 H   0  0  0  0  0  0  0  0  0  0  0  0
   -0.3172    1.2994   -1.8792 H   0  0  0  0  0  0  0  0  0  0  0  0
    1.7704    1.5861   -1.4695 H   0  0  0  0  0  0  0  0  0  0  0  0
    2.4160   -1.2551   -1.5946 H   0  0  0  0  0  0  0  0  0  0  0  0
    4.0169   -0.5782   -0.1929 H   0  0  0  0  0  0  0  0  0  0  0  0
    2.3005    1.3996    1.2010 H   0  0  0  0  0  0  0  0  0  0  0  0
    3.5901    0.2753    1.8096 H   0  0  0  0  0  0  0  0  0  0  0  0
    2.2577   -1.5502    1.4583 H   0  0  0  0  0  0  0  0  0  0  0  0
  1  2  1  0
  2  3  1  0
  3  4  1  0
  3  5  1  1
  3  6  1  0
  6  7  1  0
  7  8  1  0
  8  9  1  0
  9 10  1  0
 10 11  1  0
 11 12  1  0
 12 13  1  0
 13  6  1  0
 13  9  1  0
  1 14  1  0
  1 15  1  0
  1 16  1  0
  2 17  1  0
  2 18  1  0
  4 19  1  0
  4 20  1  0
  4 21  1  0
  5 22  1  0
  5 23  1  0
  6 24  1  1
  7 25  1  0
  8 26  1  0
  9 27  1  6
 10 28  1  0
 11 29  1  0
 11 30  1  0
 12 31  1  0
M  END
$$$$

     RDKit          3D

 31 32  0  0  0  0  0  0  0  0999 V2000
   -2.6057    1.8178    0.5969 C   0  0  0  0  0  0  0  0  0  0  0  0
   -1.2295    1.3154    0.2079 C   0  0  0  0  0  0  0  0  0  0  0  0
   -1.1756   -0.1921    0.1682 C   0  0  2  0  0  0  0  0  0  0  0  0
   -2.1974   -0.7272   -0.8447 C   0  0  0  0  0  0  0  0  0  0  0  0
   -1.4635   -0.8074    1.4454 N   0  0  0  0  0  0  0  0  0  0  0  0
    0.1686   -0.5861   -0.3662 C   0  0  2  0  0  0  0  0  0  0  0  0
    0.2947   -2.0516   -0.4428 N   0  0  0  0  0  0  0  0  0  0  0  0
    1.6130   -2.1460   -0.8952 N   0  0  0  0  0  0  0  0  0  0  0  0
    2.3302   -1.0436   -0.2817 C   0  0  1  0  0  0  0  0  0  0  0  0
    2.6787   -0.0325   -1.2900 N   0  0  0  0  0  0  0  0  0  0  0  0
    2.7718    1.1462   -0.4596 C   0  0  0  0  0  0  0  0  0  0  0  0
    1.6408    1.0148    0.4051 N   0  0  0  0  0  0  0  0  0  0  0  0
    1.2959   -0.3093    0.4797 N   0  0  0  0  0  0  0  0  0  0  0  0
   -2.5096    2.6293    1.3395 H   0  0  0  0  0  0  0  0  0  0  0  0
   -3.0120    2.3186   -0.3302 H   0  0  0  0  0  0  0  0  0  0  0  0
   -3.3170    1.0354    0.8525 H   0  0  0  0  0  0  0  0  0  0  0  0
   -0.8425    1.7225   -0.7219 H   0  0  0  0  0  0  0  0  0  0  0  0
   -0.5171    1.6257    1.0288 H   0  0  0  0  0  0  0  0  0  0  0  0
   -3.1899   -0.2670   -0.7095 H   0  0  0  0  0  0  0  0  0  0  0  0
   -1.8052   -0.6541   -1.8710 H   0  0  0  0  0  0  0  0  0  0  0  0
   -2.3162   -1.8160   -0.5956 H   0  0  0  0  0  0  0  0  0  0  0  0
   -2.4020   -0.5337    1.7720 H   0  0  0  0  0  0  0  0  0  0  0  0
   -1.5011   -1.8396    1.2694 H   0  0  0  0  0  0  0  0  0  0  0  0
    0.3596   -0.1993   -1.3828 H   0  0  0  0  0  0  0  0  0  0  0  0
    0.3103   -2.4376    0.5479 H   0  0  0  0  0  0  0  0  0  0  0  0
    1.5905   -1.9712   -1.9244 H   0  0  0  0  0  0  0  0  0  0  0  0
    3.1797   -1.3330    0.3282 H   0  0  0  0  0  0  0  0  0  0  0  0
    3.5553   -0.2541   -1.7724 H   0  0  0  0  0  0  0  0  0  0  0  0
    3.6896    1.0597    0.1923 H   0  0  0  0  0  0  0  0  0  0  0  0
    2.7949    2.0838   -1.0461 H   0  0  0  0  0  0  0  0  0  0  0  0
    1.8110    1.4323    1.3565 H   0  0  0  0  0  0  0  0  0  0  0  0
  1  2  1  0
  2  3  1  0
  3  4  1  0
  3  5  1  1
  3  6  1  0
  6  7  1  0
  7  8  1  0
  8  9  1  0
  9 10  1  0
 10 11  1  0
 11 12  1  0
 12 13  1  0
 13  6  1  0
 13  9  1  0
  1 14  1  0
  1 15  1  0
  1 16  1  0
  2 17  1  0
  2 18  1  0
  4 19  1  0
  4 20  1  0
  4 21  1  0
  5 22  1  0
  5 23  1  0
  6 24  1  6
  7 25  1  0
  8 26  1  0
  9 27  1  1
 10 28  1  0
 11 29  1  0
 11 30  1  0
 12 31  1  0
M  END
$$$$

     RDKit          3D

 31 32  0  0  0  0  0  0  0  0999 V2000
    2.8754   -0.5800    1.0457 C   0  0  0  0  0  0  0  0  0  0  0  0
    2.3709    0.5921    0.2776 C   0  0  0  0  0  0  0  0  0  0  0  0
    1.0950    0.3622   -0.4590 C   0  0  2  0  0  0  0  0  0  0  0  0
    1.2342   -0.7527   -1.4695 C   0  0  0  0  0  0  0  0  0  0  0  0
    0.8239    1.5804   -1.2325 N   0  0  0  0  0  0  0  0  0  0  0  0
   -0.0976    0.1084    0.3880 C   0  0  2  0  0  0  0  0  0  0  0  0
    0.0325   -1.0619    1.2361 N   0  0  0  0  0  0  0  0  0  0  0  0
   -1.3206   -1.2822    1.6101 N   0  0  0  0  0  0  0  0  0  0  0  0
   -2.0931   -1.0095    0.4176 C   0  0  1  0  0  0  0  0  0  0  0  0
   -3.2204   -0.1344    0.6717 N   0  0  0  0  0  0  0  0  0  0  0  0
   -3.3128    0.5832   -0.5942 C   0  0  0  0  0  0  0  0  0  0  0  0
   -1.9260    0.7767   -0.9606 N   0  0  0  0  0  0  0  0  0  0  0  0
   -1.2111   -0.2925   -0.4513 N   0  0  0  0  0  0  0  0  0  0  0  0
    2.2896   -0.8193    1.9497 H   0  0  0  0  0  0  0  0  0  0  0  0
    3.9007   -0.3041    1.4235 H   0  0  0  0  0  0  0  0  0  0  0  0
    3.0518   -1.4685    0.3942 H   0  0  0  0  0  0  0  0  0  0  0  0
    2.3204    1.4651    0.9596 H   0  0  0  0  0  0  0  0  0  0  0  0
    3.1480    0.8558   -0.4830 H   0  0  0  0  0  0  0  0  0  0  0  0
    2.0868   -0.5279   -2.1634 H   0  0  0  0  0  0  0  0  0  0  0  0
    1.5235   -1.6830   -0.9384 H   0  0  0  0  0  0  0  0  0  0  0  0
    0.3525   -0.8796   -2.0959 H   0  0  0  0  0  0  0  0  0  0  0  0
    0.8071    2.3520   -0.5186 H   0  0  0  0  0  0  0  0  0  0  0  0
    1.6306    1.8039   -1.8680 H   0  0  0  0  0  0  0  0  0  0  0  0
   -0.3970    0.9627    1.0215 H   0  0  0  0  0  0  0  0  0  0  0  0
    0.2924   -1.9016    0.6720 H   0  0  0  0  0  0  0  0  0  0  0  0
   -1.6194   -0.6449    2.3703 H   0  0  0  0  0  0  0  0  0  0  0  0
   -2.5122   -1.9356   -0.0428 H   0  0  0  0  0  0  0  0  0  0  0  0
   -2.9089    0.5837    1.3780 H   0  0  0  0  0  0  0  0  0  0  0  0
   -3.8122   -0.0013   -1.3693 H   0  0  0  0  0  0  0  0  0  0  0  0
   -3.8426    1.5469   -0.4964 H   0  0  0  0  0  0  0  0  0  0  0  0
   -1.5613    1.7061   -0.6725 H   0  0  0  0  0  0  0  0  0  0  0  0
  1  2  1  0
  2  3  1  0
  3  4  1  0
  3  5  1  6
  3  6  1  0
  6  7  1  0
  7  8  1  0
  8  9  1  0
  9 10  1  0
 10 11  1  0
 11 12  1  0
 12 13  1  0
 13  6  1  0
 13  9  1  0
  1 14  1  0
  1 15  1  0
  1 16  1  0
  2 17  1  0
  2 18  1  0
  4 19  1  0
  4 20  1  0
  4 21  1  0
  5 22  1  0
  5 23  1  0
  6 24  1  1
  7 25  1  0
  8 26  1  0
  9 27  1  6
 10 28  1  0
 11 29  1  0
 11 30  1  0
 12 31  1  0
M  END
$$$$

     RDKit          3D

 31 32  0  0  0  0  0  0  0  0999 V2000
   -2.8888    1.4086   -0.4005 C   0  0  0  0  0  0  0  0  0  0  0  0
   -1.4871    1.0306    0.0121 C   0  0  0  0  0  0  0  0  0  0  0  0
   -1.2647   -0.4587   -0.0042 C   0  0  2  0  0  0  0  0  0  0  0  0
   -1.4767   -1.0658   -1.3574 C   0  0  0  0  0  0  0  0  0  0  0  0
   -2.1842   -1.0827    0.9300 N   0  0  0  0  0  0  0  0  0  0  0  0
    0.1480   -0.7352    0.4325 C   0  0  2  0  0  0  0  0  0  0  0  0
    0.4177   -0.2470    1.7608 N   0  0  0  0  0  0  0  0  0  0  0  0
    1.3152    0.7929    1.6709 N   0  0  0  0  0  0  0  0  0  0  0  0
    1.7627    0.8961    0.3129 C   0  0  1  0  0  0  0  0  0  0  0  0
    3.1724    0.5690    0.2764 N   0  0  0  0  0  0  0  0  0  0  0  0
    3.3103   -0.2292   -0.9053 C   0  0  0  0  0  0  0  0  0  0  0  0
    2.0895   -1.0502   -0.8427 N   0  0  0  0  0  0  0  0  0  0  0  0
    1.0962   -0.1104   -0.4562 N   0  0  0  0  0  0  0  0  0  0  0  0
   -3.1128    2.4398   -0.0112 H   0  0  0  0  0  0  0  0  0  0  0  0
   -3.0183    1.4648   -1.4987 H   0  0  0  0  0  0  0  0  0  0  0  0
   -3.6128    0.7184    0.0856 H   0  0  0  0  0  0  0  0  0  0  0  0
   -0.7378    1.5569   -0.6113 H   0  0  0  0  0  0  0  0  0  0  0  0
   -1.3400    1.3791    1.0551 H   0  0  0  0  0  0  0  0  0  0  0  0
   -0.9186   -0.5880   -2.1668 H   0  0  0  0  0  0  0  0  0  0  0  0
   -1.0862   -2.1236   -1.2973 H   0  0  0  0  0  0  0  0  0  0  0  0
   -2.5482   -1.1749   -1.6244 H   0  0  0  0  0  0  0  0  0  0  0  0
   -1.6761   -1.8307    1.4618 H   0  0  0  0  0  0  0  0  0  0  0  0
   -3.0257   -1.4214    0.4456 H   0  0  0  0  0  0  0  0  0  0  0  0
    0.3067   -1.8335    0.4345 H   0  0  0  0  0  0  0  0  0  0  0  0
   -0.4541   -0.0086    2.2870 H   0  0  0  0  0  0  0  0  0  0  0  0
    2.1137    0.5659    2.3360 H   0  0  0  0  0  0  0  0  0  0  0  0
    1.5662    1.9196   -0.0403 H   0  0  0  0  0  0  0  0  0  0  0  0
    3.7904    1.3936    0.3237 H   0  0  0  0  0  0  0  0  0  0  0  0
    3.2980    0.3402   -1.8334 H   0  0  0  0  0  0  0  0  0  0  0  0
    4.2164   -0.8716   -0.8045 H   0  0  0  0  0  0  0  0  0  0  0  0
    2.2286   -1.6440    0.0291 H   0  0  0  0  0  0  0  0  0  0  0  0
  1  2  1  0
  2  3  1  0
  3  4  1  0
  3  5  1  1
  3  6  1  0
  6  7  1  0
  7  8  1  0
  8  9  1  0
  9 10  1  0
 10 11  1  0
 11 12  1  0
 12 13  1  0
 13  6  1  0
 13  9  1  0
  1 14  1  0
  1 15  1  0
  1 16  1  0
  2 17  1  0
  2 18  1  0
  4 19  1  0
  4 20  1  0
  4 21  1  0
  5 22  1  0
  5 23  1  0
  6 24  1  1
  7 25  1  0
  8 26  1  0
  9 27  1  6
 10 28  1  0
 11 29  1  0
 11 30  1  0
 12 31  1  0
M  END
$$$$
