
     RDKit          3D

 21 20  0  0  0  0  0  0  0  0999 V2000
   -1.2527   -0.7658   -1.6062 C   0  0  0  0  0  0  0  0  0  0  0  0
   -0.8816   -0.0433   -0.3096 C   0  0  2  0  0  0  0  0  0  0  0  0
    0.4127   -0.3530    0.0317 O   0  0  0  0  0  0  0  0  0  0  0  0
    1.2113    0.7804   -0.0202 C   0  0  0  0  0  0  0  0  0  0  0  0
    2.6457    0.4620    0.3532 C   0  0  0  0  0  0  0  0  0  0  0  0
    3.1938   -0.4856   -0.5200 O   0  0  0  0  0  0  0  0  0  0  0  0
   -1.8545   -0.4038    0.7910 C   0  0  0  0  0  0  0  0  0  0  0  0
   -3.1527   -0.0906    0.4438 O   0  0  0  0  0  0  0  0  0  0  0  0
   -1.4536    0.1914    1.9648 O   0  0  0  0  0  0  0  0  0  0  0  0
   -0.8349   -0.1980   -2.4631 H   0  0  0  0  0  0  0  0  0  0  0  0
   -0.8289   -1.8018   -1.6063 H   0  0  0  0  0  0  0  0  0  0  0  0
   -2.3563   -0.8470   -1.6852 H   0  0  0  0  0  0  0  0  0  0  0  0
   -0.9411    1.0393   -0.5362 H   0  0  0  0  0  0  0  0  0  0  0  0
    0.8584    1.5359    0.7082 H   0  0  0  0  0  0  0  0  0  0  0  0
    1.2098    1.1969   -1.0527 H   0  0  0  0  0  0  0  0  0  0  0  0
    2.6822    0.0379    1.3797 H   0  0  0  0  0  0  0  0  0  0  0  0
    3.2445    1.3835    0.3422 H   0  0  0  0  0  0  0  0  0  0  0  0
    3.8574   -1.0225   -0.0033 H   0  0  0  0  0  0  0  0  0  0  0  0
   -1.8071   -1.5259    0.9003 H   0  0  0  0  0  0  0  0  0  0  0  0
   -3.4588    0.7763    0.7790 H   0  0  0  0  0  0  0  0  0  0  0  0
   -0.4935    0.1339    2.1092 H   0  0  0  0  0  0  0  0  0  0  0  0
  1  2  1  0
  2  3  1  0
  3  4  1  0
  4  5  1  0
  5  6  1  0
  2  7  1  0
  7  8  1  0
  7  9  1  0
  1 10  1  0
  1 11  1  0
  1 12  1  0
  2 13  1  6
  4 14  1  0
  4 15  1  0
  5 16  1  0
  5 17  1  0
  6 18  1  0
  7 19  1  0
  8 20  1  0
  9 21  1  0
M  END
$$$$

     RDKit          3D

 21 20  0  0  0  0  0  0  0  0999 V2000
   -1.3050   -1.8271   -0.3291 C   0  0  0  0  0  0  0  0  0  0  0  0
   -0.5125   -0.5104   -0.2372 C   0  0  2  0  0  0  0  0  0  0  0  0
    0.3394   -0.5248    0.8362 O   0  0  0  0  0  0  0  0  0  0  0  0
    1.6474   -0.4891    0.4787 C   0  0  0  0  0  0  0  0  0  0  0  0
    2.1541    0.6915   -0.2554 C   0  0  0  0  0  0  0  0  0  0  0  0
    2.0342    1.8993    0.4156 O   0  0  0  0  0  0  0  0  0  0  0  0
   -1.5488    0.5828   -0.2079 C   0  0  0  0  0  0  0  0  0  0  0  0
   -2.3132    0.4122   -1.3848 O   0  0  0  0  0  0  0  0  0  0  0  0
   -0.9502    1.8172   -0.2327 O   0  0  0  0  0  0  0  0  0  0  0  0
   -2.3248   -1.6949    0.1000 H   0  0  0  0  0  0  0  0  0  0  0  0
   -0.8063   -2.6149    0.2697 H   0  0  0  0  0  0  0  0  0  0  0  0
   -1.4442   -2.1097   -1.3930 H   0  0  0  0  0  0  0  0  0  0  0  0
    0.0757   -0.4492   -1.1659 H   0  0  0  0  0  0  0  0  0  0  0  0
    1.9265   -1.3939   -0.1471 H   0  0  0  0  0  0  0  0  0  0  0  0
    2.2522   -0.5993    1.4137 H   0  0  0  0  0  0  0  0  0  0  0  0
    3.2433    0.4819   -0.4835 H   0  0  0  0  0  0  0  0  0  0  0  0
    1.6378    0.8043   -1.2252 H   0  0  0  0  0  0  0  0  0  0  0  0
    2.8260    2.4850    0.1928 H   0  0  0  0  0  0  0  0  0  0  0  0
   -2.2028    0.5084    0.6809 H   0  0  0  0  0  0  0  0  0  0  0  0
   -3.2036    0.0389   -1.1598 H   0  0  0  0  0  0  0  0  0  0  0  0
   -1.5253    2.4920    0.2454 H   0  0  0  0  0  0  0  0  0  0  0  0
  1  2  1  0
  2  3  1  0
  3  4  1  0
  4  5  1  0
  5  6  1  0
  2  7  1  0
  7  8  1  0
  7  9  1  0
  1 10  1  0
  1 11  1  0
  1 12  1  0
  2 13  1  6
  4 14  1  0
  4 15  1  0
  5 16  1  0
  5 17  1  0
  6 18  1  0
  7 19  1  0
  8 20  1  0
  9 21  1  0
M  END
$$$$

     RDKit          3D

 21 20  0  0  0  0  0  0  0  0999 V2000
   -1.5748   -1.3555   -0.1796 C   0  0  0  0  0  0  0  0  0  0  0  0
   -0.6661   -0.1552   -0.3206 C   0  0  2  0  0  0  0  0  0  0  0  0
    0.3905   -0.1950    0.5771 O   0  0  0  0  0  0  0  0  0  0  0  0
    1.5783   -0.2142   -0.1216 C   0  0  0  0  0  0  0  0  0  0  0  0
    2.7815   -0.2579    0.7824 C   0  0  0  0  0  0  0  0  0  0  0  0
    2.7559    0.8765    1.5859 O   0  0  0  0  0  0  0  0  0  0  0  0
   -1.5131    1.0846   -0.0980 C   0  0  0  0  0  0  0  0  0  0  0  0
   -2.5600    1.0725   -1.0277 O   0  0  0  0  0  0  0  0  0  0  0  0
   -1.9995    1.1347    1.1930 O   0  0  0  0  0  0  0  0  0  0  0  0
   -1.9964   -1.4365    0.8382 H   0  0  0  0  0  0  0  0  0  0  0  0
   -2.4097   -1.2232   -0.8753 H   0  0  0  0  0  0  0  0  0  0  0  0
   -1.0799   -2.3063   -0.4272 H   0  0  0  0  0  0  0  0  0  0  0  0
   -0.2671   -0.1499   -1.3358 H   0  0  0  0  0  0  0  0  0  0  0  0
    1.7092    0.6482   -0.8090 H   0  0  0  0  0  0  0  0  0  0  0  0
    1.5909   -1.1413   -0.7373 H   0  0  0  0  0  0  0  0  0  0  0  0
    3.6938   -0.2508    0.1540 H   0  0  0  0  0  0  0  0  0  0  0  0
    2.7423   -1.1979    1.3726 H   0  0  0  0  0  0  0  0  0  0  0  0
    2.6039    1.6457    0.9695 H   0  0  0  0  0  0  0  0  0  0  0  0
   -0.8839    1.9791   -0.2629 H   0  0  0  0  0  0  0  0  0  0  0  0
   -2.1263    0.9041   -1.9173 H   0  0  0  0  0  0  0  0  0  0  0  0
   -2.7696    0.5383    1.3477 H   0  0  0  0  0  0  0  0  0  0  0  0
  1  2  1  0
  2  3  1  0
  3  4  1  0
  4  5  1  0
  5  6  1  0
  2  7  1  0
  7  8  1  0
  7  9  1  0
  1 10  1  0
  1 11  1  0
  1 12  1  0
  2 13  1  6
  4 14  1  0
  4 15  1  0
  5 16  1  0
  5 17  1  0
  6 18  1  0
  7 19  1  0
  8 20  1  0
  9 21  1  0
M  END
$$$$

     RDKit          3D

 21 20  0  0  0  0  0  0  0  0999 V2000
   -1.5715   -1.4918    0.5739 C   0  0  0  0  0  0  0  0  0  0  0  0
   -0.8880   -0.4411   -0.2685 C   0  0  2  0  0  0  0  0  0  0  0  0
    0.3051   -0.0165    0.2550 O   0  0  0  0  0  0  0  0  0  0  0  0
    1.3544   -0.2049   -0.6396 C   0  0  0  0  0  0  0  0  0  0  0  0
    2.6623    0.2597   -0.0686 C   0  0  0  0  0  0  0  0  0  0  0  0
    2.9791   -0.4316    1.0923 O   0  0  0  0  0  0  0  0  0  0  0  0
   -1.8348    0.7493   -0.3566 C   0  0  0  0  0  0  0  0  0  0  0  0
   -1.2756    1.7133   -1.1745 O   0  0  0  0  0  0  0  0  0  0  0  0
   -2.1633    1.2050    0.9038 O   0  0  0  0  0  0  0  0  0  0  0  0
   -1.0950   -2.4723    0.5379 H   0  0  0  0  0  0  0  0  0  0  0  0
   -1.6106   -1.1544    1.6310 H   0  0  0  0  0  0  0  0  0  0  0  0
   -2.6076   -1.5805    0.2183 H   0  0  0  0  0  0  0  0  0  0  0  0
   -0.7642   -0.8465   -1.2980 H   0  0  0  0  0  0  0  0  0  0  0  0
    1.4261   -1.3012   -0.8256 H   0  0  0  0  0  0  0  0  0  0  0  0
    1.1602    0.3767   -1.5616 H   0  0  0  0  0  0  0  0  0  0  0  0
    2.6939    1.3448    0.0421 H   0  0  0  0  0  0  0  0  0  0  0  0
    3.4530   -0.0010   -0.8311 H   0  0  0  0  0  0  0  0  0  0  0  0
    3.1808    0.2504    1.7940 H   0  0  0  0  0  0  0  0  0  0  0  0
   -2.7744    0.3855   -0.8331 H   0  0  0  0  0  0  0  0  0  0  0  0
   -1.2001    2.6028   -0.7366 H   0  0  0  0  0  0  0  0  0  0  0  0
   -1.4299    1.0543    1.5457 H   0  0  0  0  0  0  0  0  0  0  0  0
  1  2  1  0
  2  3  1  0
  3  4  1  0
  4  5  1  0
  5  6  1  0
  2  7  1  0
  7  8  1  0
  7  9  1  0
  1 10  1  0
  1 11  1  0
  1 12  1  0
  2 13  1  6
  4 14  1  0
  4 15  1  0
  5 16  1  0
  5 17  1  0
  6 18  1  0
  7 19  1  0
  8 20  1  0
  9 21  1  0
M  END
$$$$

     RDKit          3D

 21 20  0  0  0  0  0  0  0  0999 V2000
   -1.3696   -1.6777   -0.6976 C   0  0  0  0  0  0  0  0  0  0  0  0
   -0.8087   -0.2631   -0.6102 C   0  0  2  0  0  0  0  0  0  0  0  0
    0.3782   -0.3371    0.0806 O   0  0  0  0  0  0  0  0  0  0  0  0
    1.4689    0.1570   -0.5875 C   0  0  0  0  0  0  0  0  0  0  0  0
    2.6675   -0.0231    0.3543 C   0  0  0  0  0  0  0  0  0  0  0  0
    3.8345    0.4356   -0.1986 O   0  0  0  0  0  0  0  0  0  0  0  0
   -1.7790    0.5404    0.2590 C   0  0  0  0  0  0  0  0  0  0  0  0
   -2.9757    0.6282   -0.4120 O   0  0  0  0  0  0  0  0  0  0  0  0
   -1.2797    1.8356    0.4167 O   0  0  0  0  0  0  0  0  0  0  0  0
   -1.2827   -2.1843    0.2847 H   0  0  0  0  0  0  0  0  0  0  0  0
   -0.8287   -2.2753   -1.4452 H   0  0  0  0  0  0  0  0  0  0  0  0
   -2.4438   -1.6435   -0.9757 H   0  0  0  0  0  0  0  0  0  0  0  0
   -0.7383    0.1791   -1.6046 H   0  0  0  0  0  0  0  0  0  0  0  0
    1.6557   -0.2814   -1.5731 H   0  0  0  0  0  0  0  0  0  0  0  0
    1.3613    1.2684   -0.6942 H   0  0  0  0  0  0  0  0  0  0  0  0
    2.6899   -1.1025    0.6121 H   0  0  0  0  0  0  0  0  0  0  0  0
    2.4323    0.5411    1.2815 H   0  0  0  0  0  0  0  0  0  0  0  0
    3.9222    0.3008   -1.1683 H   0  0  0  0  0  0  0  0  0  0  0  0
   -1.8779    0.0547    1.2499 H   0  0  0  0  0  0  0  0  0  0  0  0
   -2.9963    1.4005   -1.0348 H   0  0  0  0  0  0  0  0  0  0  0  0
   -2.0301    2.4468    0.5593 H   0  0  0  0  0  0  0  0  0  0  0  0
  1  2  1  0
  2  3  1  0
  3  4  1  0
  4  5  1  0
  5  6  1  0
  2  7  1  0
  7  8  1  0
  7  9  1  0
  1 10  1  0
  1 11  1  0
  1 12  1  0
  2 13  1  6
  4 14  1  0
  4 15  1  0
  5 16  1  0
  5 17  1  0
  6 18  1  0
  7 19  1  0
  8 20  1  0
  9 21  1  0
M  END
$$$$

     RDKit          3D

 21 20  0  0  0  0  0  0  0  0999 V2000
   -1.2161   -1.8257   -0.2833 C   0  0  0  0  0  0  0  0  0  0  0  0
   -0.7708   -0.3657   -0.4125 C   0  0  2  0  0  0  0  0  0  0  0  0
    0.3276   -0.1112    0.3950 O   0  0  0  0  0  0  0  0  0  0  0  0
    1.3737    0.2951   -0.3998 C   0  0  0  0  0  0  0  0  0  0  0  0
    2.6285    0.6026    0.3653 C   0  0  0  0  0  0  0  0  0  0  0  0
    3.5952    0.9994   -0.5738 O   0  0  0  0  0  0  0  0  0  0  0  0
   -1.9355    0.5417   -0.0951 C   0  0  0  0  0  0  0  0  0  0  0  0
   -2.3609    0.3960    1.2186 O   0  0  0  0  0  0  0  0  0  0  0  0
   -1.5770    1.8647   -0.3084 O   0  0  0  0  0  0  0  0  0  0  0  0
   -2.2317   -1.8747   -0.6939 H   0  0  0  0  0  0  0  0  0  0  0  0
   -1.1837   -2.0723    0.8042 H   0  0  0  0  0  0  0  0  0  0  0  0
   -0.5438   -2.5063   -0.8170 H   0  0  0  0  0  0  0  0  0  0  0  0
   -0.4902   -0.1691   -1.4622 H   0  0  0  0  0  0  0  0  0  0  0  0
    1.0691    1.2402   -0.9156 H   0  0  0  0  0  0  0  0  0  0  0  0
    1.5927   -0.5157   -1.1284 H   0  0  0  0  0  0  0  0  0  0  0  0
    2.4815    1.4664    1.0380 H   0  0  0  0  0  0  0  0  0  0  0  0
    3.0417   -0.2805    0.8847 H   0  0  0  0  0  0  0  0  0  0  0  0
    3.9273    0.1800   -1.0139 H   0  0  0  0  0  0  0  0  0  0  0  0
   -2.7853    0.2669   -0.7526 H   0  0  0  0  0  0  0  0  0  0  0  0
   -2.5887   -0.5408    1.4350 H   0  0  0  0  0  0  0  0  0  0  0  0
   -2.3537    2.4090   -0.5673 H   0  0  0  0  0  0  0  0  0  0  0  0
  1  2  1  0
  2  3  1  0
  3  4  1  0
  4  5  1  0
  5  6  1  0
  2  7  1  0
  7  8  1  0
  7  9  1  0
  1 10  1  0
  1 11  1  0
  1 12  1  0
  2 13  1  6
  4 14  1  0
  4 15  1  0
  5 16  1  0
  5 17  1  0
  6 18  1  0
  7 19  1  0
  8 20  1  0
  9 21  1  0
M  END
$$$$

     RDKit          3D

 21 20  0  0  0  0  0  0  0  0999 V2000
   -1.5671   -1.2626    0.8393 C   0  0  0  0  0  0  0  0  0  0  0  0
   -0.8247   -0.3038   -0.0605 C   0  0  2  0  0  0  0  0  0  0  0  0
    0.4603   -0.0464    0.3901 O   0  0  0  0  0  0  0  0  0  0  0  0
    1.3561   -0.4442   -0.5924 C   0  0  0  0  0  0  0  0  0  0  0  0
    2.7918   -0.1901   -0.1639 C   0  0  0  0  0  0  0  0  0  0  0  0
    3.0309    1.1407    0.0879 O   0  0  0  0  0  0  0  0  0  0  0  0
   -1.5662    1.0157   -0.1387 C   0  0  0  0  0  0  0  0  0  0  0  0
   -1.6180    1.6122    1.1045 O   0  0  0  0  0  0  0  0  0  0  0  0
   -2.8698    0.7435   -0.5890 O   0  0  0  0  0  0  0  0  0  0  0  0
   -2.4637   -0.7353    1.2690 H   0  0  0  0  0  0  0  0  0  0  0  0
   -1.9868   -2.1062    0.2530 H   0  0  0  0  0  0  0  0  0  0  0  0
   -0.9454   -1.6433    1.6744 H   0  0  0  0  0  0  0  0  0  0  0  0
   -0.7675   -0.7462   -1.0598 H   0  0  0  0  0  0  0  0  0  0  0  0
    1.1661    0.1277   -1.5415 H   0  0  0  0  0  0  0  0  0  0  0  0
    1.2792   -1.5427   -0.7684 H   0  0  0  0  0  0  0  0  0  0  0  0
    3.4323   -0.6100   -0.9700 H   0  0  0  0  0  0  0  0  0  0  0  0
    2.9998   -0.7839    0.7535 H   0  0  0  0  0  0  0  0  0  0  0  0
    3.5845    1.2549    0.9005 H   0  0  0  0  0  0  0  0  0  0  0  0
   -1.0418    1.6368   -0.9041 H   0  0  0  0  0  0  0  0  0  0  0  0
   -1.6346    2.5970    0.9706 H   0  0  0  0  0  0  0  0  0  0  0  0
   -2.8155    0.2863   -1.4545 H   0  0  0  0  0  0  0  0  0  0  0  0
  1  2  1  0
  2  3  1  0
  3  4  1  0
  4  5  1  0
  5  6  1  0
  2  7  1  0
  7  8  1  0
  7  9  1  0
  1 10  1  0
  1 11  1  0
  1 12  1  0
  2 13  1  6
  4 14  1  0
  4 15  1  0
  5 16  1  0
  5 17  1  0
  6 18  1  0
  7 19  1  0
  8 20  1  0
  9 21  1  0
M  END
$$$$

     RDKit          3D

 21 20  0  0  0  0  0  0  0  0999 V2000
   -1.2192   -1.8164    0.1168 C   0  0  0  0  0  0  0  0  0  0  0  0
   -0.7924   -0.4340   -0.3146 C   0  0  2  0  0  0  0  0  0  0  0  0
    0.3070   -0.0243    0.4381 O   0  0  0  0  0  0  0  0  0  0  0  0
    1.3666    0.1765   -0.4361 C   0  0  0  0  0  0  0  0  0  0  0  0
    2.6196    0.6276    0.2912 C   0  0  0  0  0  0  0  0  0  0  0  0
    3.6049    0.7913   -0.7101 O   0  0  0  0  0  0  0  0  0  0  0  0
   -1.8809    0.5849   -0.1266 C   0  0  0  0  0  0  0  0  0  0  0  0
   -3.0195    0.2405   -0.8540 O   0  0  0  0  0  0  0  0  0  0  0  0
   -1.4016    1.8090   -0.5913 O   0  0  0  0  0  0  0  0  0  0  0  0
   -1.7427   -1.8237    1.0808 H   0  0  0  0  0  0  0  0  0  0  0  0
   -1.8581   -2.2230   -0.6865 H   0  0  0  0  0  0  0  0  0  0  0  0
   -0.2817   -2.4401    0.1419 H   0  0  0  0  0  0  0  0  0  0  0  0
   -0.5586   -0.4981   -1.4006 H   0  0  0  0  0  0  0  0  0  0  0  0
    1.5430   -0.7673   -0.9865 H   0  0  0  0  0  0  0  0  0  0  0  0
    1.0708    1.0040   -1.1282 H   0  0  0  0  0  0  0  0  0  0  0  0
    2.9950   -0.1177    0.9921 H   0  0  0  0  0  0  0  0  0  0  0  0
    2.5023    1.6130    0.7554 H   0  0  0  0  0  0  0  0  0  0  0  0
    3.7865   -0.0760   -1.1503 H   0  0  0  0  0  0  0  0  0  0  0  0
   -2.1881    0.6835    0.9252 H   0  0  0  0  0  0  0  0  0  0  0  0
   -3.6577    0.9922   -0.8608 H   0  0  0  0  0  0  0  0  0  0  0  0
   -1.1951    1.6983   -1.5418 H   0  0  0  0  0  0  0  0  0  0  0  0
  1  2  1  0
  2  3  1  0
  3  4  1  0
  4  5  1  0
  5  6  1  0
  2  7  1  0
  7  8  1  0
  7  9  1  0
  1 10  1  0
  1 11  1  0
  1 12  1  0
  2 13  1  6
  4 14  1  0
  4 15  1  0
  5 16  1  0
  5 17  1  0
  6 18  1  0
  7 19  1  0
  8 20  1  0
  9 21  1  0
M  END
$$$$
