
     RDKit          3D

 19 19  0  0  0  0  0  0  0  0999 V2000
    0.3512    1.2739    1.0016 N   0  0  0  0  0  0  0  0  0  0  0  0
    0.9175    0.1047    0.4029 C   0  0  2  0  0  0  0  0  0  0  0  0
    2.0352    0.5151   -0.4718 C   0  0  0  0  0  0  0  0  0  0  0  0
    2.3555    1.7118   -0.6010 O   0  0  0  0  0  0  0  0  0  0  0  0
    2.7347   -0.4543   -1.1571 O   0  0  0  0  0  0  0  0  0  0  0  0
   -0.0489   -0.7604   -0.3311 C   0  0  1  0  0  0  0  0  0  0  0  0
   -1.1859   -1.2980    0.5684 C   0  0  0  0  0  0  0  0  0  0  0  0
   -1.4413   -0.4131   -0.6041 C   0  0  1  0  0  0  0  0  0  0  0  0
   -1.9966    0.8933   -0.3622 N   0  0  0  0  0  0  0  0  0  0  0  0
   -0.5345    1.1257    1.5013 H   0  0  0  0  0  0  0  0  0  0  0  0
    1.0381    1.6170    1.7232 H   0  0  0  0  0  0  0  0  0  0  0  0
    1.3933   -0.4822    1.2453 H   0  0  0  0  0  0  0  0  0  0  0  0
    3.6900   -0.3271   -1.4848 H   0  0  0  0  0  0  0  0  0  0  0  0
    0.4299   -1.5247   -0.9828 H   0  0  0  0  0  0  0  0  0  0  0  0
   -1.3137   -0.8511    1.5587 H   0  0  0  0  0  0  0  0  0  0  0  0
   -1.3820   -2.3876    0.5211 H   0  0  0  0  0  0  0  0  0  0  0  0
   -1.9344   -0.9226   -1.4606 H   0  0  0  0  0  0  0  0  0  0  0  0
   -2.2480    1.3339   -1.2739 H   0  0  0  0  0  0  0  0  0  0  0  0
   -2.8602    0.8456    0.2066 H   0  0  0  0  0  0  0  0  0  0  0  0
  1  2  1  0
  2  3  1  0
  3  4  2  0
  3  5  1  0
  2  6  1  0
  6  7  1  0
  7  8  1  0
  8  9  1  0
  8  6  1  0
  1 10  1  0
  1 11  1  0
  2 12  1  1
  5 13  1  0
  6 14  1  6
  7 15  1  0
  7 16  1  0
  8 17  1  6
  9 18  1  0
  9 19  1  0
M  END
$$$$

     RDKit          3D

 19 19  0  0  0  0  0  0  0  0999 V2000
    1.1600    0.7989    1.7709 N   0  0  0  0  0  0  0  0  0  0  0  0
    0.7190   -0.0389    0.6759 C   0  0  2  0  0  0  0  0  0  0  0  0
    1.8917   -0.5753   -0.0250 C   0  0  0  0  0  0  0  0  0  0  0  0
    3.0305   -0.2572    0.3908 O   0  0  0  0  0  0  0  0  0  0  0  0
    1.8438   -1.4175   -1.1257 O   0  0  0  0  0  0  0  0  0  0  0  0
   -0.2310    0.7096   -0.2195 C   0  0  1  0  0  0  0  0  0  0  0  0
   -0.8378    0.1146   -1.4063 C   0  0  0  0  0  0  0  0  0  0  0  0
   -1.6547    0.3535   -0.1487 C   0  0  1  0  0  0  0  0  0  0  0  0
   -2.1254   -0.8511    0.4692 N   0  0  0  0  0  0  0  0  0  0  0  0
    2.1821    0.7626    1.9240 H   0  0  0  0  0  0  0  0  0  0  0  0
    0.8942    1.7907    1.6718 H   0  0  0  0  0  0  0  0  0  0  0  0
    0.1797   -0.9081    1.1210 H   0  0  0  0  0  0  0  0  0  0  0  0
    2.5050   -1.3153   -1.9099 H   0  0  0  0  0  0  0  0  0  0  0  0
    0.0187    1.8027   -0.2932 H   0  0  0  0  0  0  0  0  0  0  0  0
   -0.6111   -0.9326   -1.7089 H   0  0  0  0  0  0  0  0  0  0  0  0
   -1.1407    0.7466   -2.2533 H   0  0  0  0  0  0  0  0  0  0  0  0
   -2.3854    1.1857   -0.1410 H   0  0  0  0  0  0  0  0  0  0  0  0
   -2.8386   -1.2738   -0.1779 H   0  0  0  0  0  0  0  0  0  0  0  0
   -2.6001   -0.6954    1.3857 H   0  0  0  0  0  0  0  0  0  0  0  0
  1  2  1  0
  2  3  1  0
  3  4  2  0
  3  5  1  0
  2  6  1  0
  6  7  1  0
  7  8  1  0
  8  9  1  0
  8  6  1  0
  1 10  1  0
  1 11  1  0
  2 12  1  1
  5 13  1  0
  6 14  1  6
  7 15  1  0
  7 16  1  0
  8 17  1  6
  9 18  1  0
  9 19  1  0
M  END
$$$$

     RDKit          3D

 19 19  0  0  0  0  0  0  0  0999 V2000
    1.5269    1.2679    0.7229 N   0  0  0  0  0  0  0  0  0  0  0  0
    0.7606    0.1083    0.3534 C   0  0  2  0  0  0  0  0  0  0  0  0
    1.6901   -0.9243   -0.1596 C   0  0  0  0  0  0  0  0  0  0  0  0
    1.2904   -2.0492   -0.5572 O   0  0  0  0  0  0  0  0  0  0  0  0
    3.0488   -0.6693   -0.2143 O   0  0  0  0  0  0  0  0  0  0  0  0
   -0.2471    0.4356   -0.7200 C   0  0  1  0  0  0  0  0  0  0  0  0
   -1.0994   -0.7500   -1.1640 C   0  0  0  0  0  0  0  0  0  0  0  0
   -1.7000    0.4369   -0.4381 C   0  0  1  0  0  0  0  0  0  0  0  0
   -2.2183    0.1419    0.8768 N   0  0  0  0  0  0  0  0  0  0  0  0
    0.9241    2.0874    0.9746 H   0  0  0  0  0  0  0  0  0  0  0  0
    2.2334    1.5282   -0.0038 H   0  0  0  0  0  0  0  0  0  0  0  0
    0.2462   -0.2426    1.2934 H   0  0  0  0  0  0  0  0  0  0  0  0
    3.7508   -1.4203   -0.1964 H   0  0  0  0  0  0  0  0  0  0  0  0
    0.1412    1.1201   -1.5019 H   0  0  0  0  0  0  0  0  0  0  0  0
   -1.2900   -0.8503   -2.2642 H   0  0  0  0  0  0  0  0  0  0  0  0
   -1.0201   -1.7021   -0.6265 H   0  0  0  0  0  0  0  0  0  0  0  0
   -2.3471    1.0910   -1.0458 H   0  0  0  0  0  0  0  0  0  0  0  0
   -2.9832   -0.5804    0.7345 H   0  0  0  0  0  0  0  0  0  0  0  0
   -2.7072    0.9714    1.2878 H   0  0  0  0  0  0  0  0  0  0  0  0
  1  2  1  0
  2  3  1  0
  3  4  2  0
  3  5  1  0
  2  6  1  0
  6  7  1  0
  7  8  1  0
  8  9  1  0
  8  6  1  0
  1 10  1  0
  1 11  1  0
  2 12  1  1
  5 13  1  0
  6 14  1  6
  7 15  1  0
  7 16  1  0
  8 17  1  6
  9 18  1  0
  9 19  1  0
M  END
$$$$

     RDKit          3D

 19 19  0  0  0  0  0  0  0  0999 V2000
    0.9147    0.1568    1.2014 N   0  0  0  0  0  0  0  0  0  0  0  0
    0.9538   -0.4299   -0.0920 C   0  0  2  0  0  0  0  0  0  0  0  0
    1.9467    0.2865   -0.9275 C   0  0  0  0  0  0  0  0  0  0  0  0
    2.1689   -0.0454   -2.1233 O   0  0  0  0  0  0  0  0  0  0  0  0
    2.6836    1.3623   -0.4324 O   0  0  0  0  0  0  0  0  0  0  0  0
   -0.3963   -0.5101   -0.7500 C   0  0  1  0  0  0  0  0  0  0  0  0
   -1.4564   -1.2985   -0.0579 C   0  0  0  0  0  0  0  0  0  0  0  0
   -1.5718    0.1916   -0.2353 C   0  0  1  0  0  0  0  0  0  0  0  0
   -1.5469    0.9852    0.9723 N   0  0  0  0  0  0  0  0  0  0  0  0
    0.2937   -0.2693    1.8874 H   0  0  0  0  0  0  0  0  0  0  0  0
    1.7755    0.5850    1.5336 H   0  0  0  0  0  0  0  0  0  0  0  0
    1.3321   -1.4730    0.0314 H   0  0  0  0  0  0  0  0  0  0  0  0
    3.1444    2.0217   -1.0772 H   0  0  0  0  0  0  0  0  0  0  0  0
   -0.3270   -0.5878   -1.8676 H   0  0  0  0  0  0  0  0  0  0  0  0
   -1.2731   -1.7126    0.9556 H   0  0  0  0  0  0  0  0  0  0  0  0
   -2.0723   -1.9780   -0.6978 H   0  0  0  0  0  0  0  0  0  0  0  0
   -2.3703    0.4960   -0.9459 H   0  0  0  0  0  0  0  0  0  0  0  0
   -2.1894    1.8300    0.9037 H   0  0  0  0  0  0  0  0  0  0  0  0
   -2.0098    0.3894    1.7214 H   0  0  0  0  0  0  0  0  0  0  0  0
  1  2  1  0
  2  3  1  0
  3  4  2  0
  3  5  1  0
  2  6  1  0
  6  7  1  0
  7  8  1  0
  8  9  1  0
  8  6  1  0
  1 10  1  0
  1 11  1  0
  2 12  1  1
  5 13  1  0
  6 14  1  6
  7 15  1  0
  7 16  1  0
  8 17  1  6
  9 18  1  0
  9 19  1  0
M  END
$$$$

     RDKit          3D

 19 19  0  0  0  0  0  0  0  0999 V2000
   -0.2676   -1.2394   -0.8907 N   0  0  0  0  0  0  0  0  0  0  0  0
   -0.8504   -0.5526    0.2147 C   0  0  2  0  0  0  0  0  0  0  0  0
   -2.0962    0.1498   -0.2226 C   0  0  0  0  0  0  0  0  0  0  0  0
   -2.7916    0.8272    0.5765 O   0  0  0  0  0  0  0  0  0  0  0  0
   -2.5074    0.0622   -1.5346 O   0  0  0  0  0  0  0  0  0  0  0  0
    0.0708    0.4010    0.9111 C   0  0  1  0  0  0  0  0  0  0  0  0
    1.3208   -0.2189    1.5000 C   0  0  0  0  0  0  0  0  0  0  0  0
    1.3844    0.7840    0.3997 C   0  0  1  0  0  0  0  0  0  0  0  0
    1.9306    0.3183   -0.8376 N   0  0  0  0  0  0  0  0  0  0  0  0
   -0.7526   -2.1833   -0.9716 H   0  0  0  0  0  0  0  0  0  0  0  0
   -0.4955   -0.7518   -1.7933 H   0  0  0  0  0  0  0  0  0  0  0  0
   -1.1689   -1.3128    0.9730 H   0  0  0  0  0  0  0  0  0  0  0  0
   -3.0153    0.8074   -2.0037 H   0  0  0  0  0  0  0  0  0  0  0  0
   -0.4571    1.1173    1.5872 H   0  0  0  0  0  0  0  0  0  0  0  0
    1.6434    0.0690    2.5137 H   0  0  0  0  0  0  0  0  0  0  0  0
    1.5629   -1.2823    1.2477 H   0  0  0  0  0  0  0  0  0  0  0  0
    1.7821    1.7832    0.7162 H   0  0  0  0  0  0  0  0  0  0  0  0
    2.9745    0.2878   -0.7314 H   0  0  0  0  0  0  0  0  0  0  0  0
    1.7331    0.9337   -1.6543 H   0  0  0  0  0  0  0  0  0  0  0  0
  1  2  1  0
  2  3  1  0
  3  4  2  0
  3  5  1  0
  2  6  1  0
  6  7  1  0
  7  8  1  0
  8  9  1  0
  8  6  1  0
  1 10  1  0
  1 11  1  0
  2 12  1  1
  5 13  1  0
  6 14  1  1
  7 15  1  0
  7 16  1  0
  8 17  1  1
  9 18  1  0
  9 19  1  0
M  END
$$$$

     RDKit          3D

 19 19  0  0  0  0  0  0  0  0999 V2000
    1.2586   -1.7122   -0.6944 N   0  0  0  0  0  0  0  0  0  0  0  0
    0.8413   -0.3860   -0.3456 C   0  0  2  0  0  0  0  0  0  0  0  0
    1.9433    0.3238    0.3350 C   0  0  0  0  0  0  0  0  0  0  0  0
    3.0324   -0.2439    0.5249 O   0  0  0  0  0  0  0  0  0  0  0  0
    1.7987    1.6382    0.7812 O   0  0  0  0  0  0  0  0  0  0  0  0
   -0.3643   -0.4625    0.5685 C   0  0  1  0  0  0  0  0  0  0  0  0
   -0.9379    0.8066    1.0346 C   0  0  0  0  0  0  0  0  0  0  0  0
   -1.7074    0.0025    0.0508 C   0  0  1  0  0  0  0  0  0  0  0  0
   -1.7059    0.3449   -1.3573 N   0  0  0  0  0  0  0  0  0  0  0  0
    0.8370   -2.0113   -1.6170 H   0  0  0  0  0  0  0  0  0  0  0  0
    1.1316   -2.4084    0.0520 H   0  0  0  0  0  0  0  0  0  0  0  0
    0.5107    0.1535   -1.2585 H   0  0  0  0  0  0  0  0  0  0  0  0
    2.6009    2.2481    0.8921 H   0  0  0  0  0  0  0  0  0  0  0  0
   -0.4137   -1.3722    1.2023 H   0  0  0  0  0  0  0  0  0  0  0  0
   -1.3243    0.7981    2.0882 H   0  0  0  0  0  0  0  0  0  0  0  0
   -0.5321    1.7691    0.6683 H   0  0  0  0  0  0  0  0  0  0  0  0
   -2.6250   -0.5148    0.4240 H   0  0  0  0  0  0  0  0  0  0  0  0
   -1.9839    1.3368   -1.5118 H   0  0  0  0  0  0  0  0  0  0  0  0
   -2.3601   -0.3102   -1.8374 H   0  0  0  0  0  0  0  0  0  0  0  0
  1  2  1  0
  2  3  1  0
  3  4  2  0
  3  5  1  0
  2  6  1  0
  6  7  1  0
  7  8  1  0
  8  9  1  0
  8  6  1  0
  1 10  1  0
  1 11  1  0
  2 12  1  6
  5 13  1  0
  6 14  1  1
  7 15  1  0
  7 16  1  0
  8 17  1  1
  9 18  1  0
  9 19  1  0
M  END
$$$$

     RDKit          3D

 19 19  0  0  0  0  0  0  0  0999 V2000
   -1.0053   -1.7401   -1.0870 N   0  0  0  0  0  0  0  0  0  0  0  0
   -0.7408   -0.7119   -0.1036 C   0  0  2  0  0  0  0  0  0  0  0  0
   -2.0215    0.0174    0.1115 C   0  0  0  0  0  0  0  0  0  0  0  0
   -3.0834   -0.2597   -0.4791 O   0  0  0  0  0  0  0  0  0  0  0  0
   -2.0196    1.0629    1.0237 O   0  0  0  0  0  0  0  0  0  0  0  0
    0.2663    0.2990   -0.5890 C   0  0  1  0  0  0  0  0  0  0  0  0
    0.5653    1.3905    0.4198 C   0  0  0  0  0  0  0  0  0  0  0  0
    1.6101    0.4160   -0.0399 C   0  0  1  0  0  0  0  0  0  0  0  0
    2.1663   -0.5149    0.9073 N   0  0  0  0  0  0  0  0  0  0  0  0
   -0.5666   -1.5386   -2.0125 H   0  0  0  0  0  0  0  0  0  0  0  0
   -0.8746   -2.6967   -0.7440 H   0  0  0  0  0  0  0  0  0  0  0  0
   -0.4265   -1.2235    0.8285 H   0  0  0  0  0  0  0  0  0  0  0  0
   -2.6562    1.8604    0.9401 H   0  0  0  0  0  0  0  0  0  0  0  0
    0.0698    0.6453   -1.6300 H   0  0  0  0  0  0  0  0  0  0  0  0
    0.2653    1.2725    1.4680 H   0  0  0  0  0  0  0  0  0  0  0  0
    0.5869    2.4459    0.0347 H   0  0  0  0  0  0  0  0  0  0  0  0
    2.3855    0.8646   -0.7143 H   0  0  0  0  0  0  0  0  0  0  0  0
    3.0902   -0.1417    1.2136 H   0  0  0  0  0  0  0  0  0  0  0  0
    2.3888   -1.4473    0.4522 H   0  0  0  0  0  0  0  0  0  0  0  0
  1  2  1  0
  2  3  1  0
  3  4  2  0
  3  5  1  0
  2  6  1  0
  6  7  1  0
  7  8  1  0
  8  9  1  0
  8  6  1  0
  1 10  1  0
  1 11  1  0
  2 12  1  1
  5 13  1  0
  6 14  1  6
  7 15  1  0
  7 16  1  0
  8 17  1  6
  9 18  1  0
  9 19  1  0
M  END
$$$$

     RDKit          3D

 19 19  0  0  0  0  0  0  0  0999 V2000
   -0.1811    1.5295    0.6791 N   0  0  0  0  0  0  0  0  0  0  0  0
   -0.8921    0.5403   -0.0722 C   0  0  2  0  0  0  0  0  0  0  0  0
   -1.9658   -0.1191    0.7048 C   0  0  0  0  0  0  0  0  0  0  0  0
   -2.1645    0.2103    1.8833 O   0  0  0  0  0  0  0  0  0  0  0  0
   -2.7274   -1.0945    0.0930 O   0  0  0  0  0  0  0  0  0  0  0  0
    0.0045   -0.5387   -0.6268 C   0  0  1  0  0  0  0  0  0  0  0  0
    1.1126   -0.1588   -1.5726 C   0  0  0  0  0  0  0  0  0  0  0  0
    1.3653   -0.7488   -0.1518 C   0  0  1  0  0  0  0  0  0  0  0  0
    2.0574    0.1354    0.7302 N   0  0  0  0  0  0  0  0  0  0  0  0
   -0.8502    1.9217    1.3977 H   0  0  0  0  0  0  0  0  0  0  0  0
    0.0194    2.3547    0.0375 H   0  0  0  0  0  0  0  0  0  0  0  0
   -1.3924    1.0145   -0.9557 H   0  0  0  0  0  0  0  0  0  0  0  0
   -3.2310   -1.7860    0.6669 H   0  0  0  0  0  0  0  0  0  0  0  0
   -0.5621   -1.4425   -0.9520 H   0  0  0  0  0  0  0  0  0  0  0  0
    1.3745   -0.8206   -2.4184 H   0  0  0  0  0  0  0  0  0  0  0  0
    1.3740    0.8989   -1.7198 H   0  0  0  0  0  0  0  0  0  0  0  0
    1.7784   -1.7991   -0.1459 H   0  0  0  0  0  0  0  0  0  0  0  0
    1.7933    0.0224    1.7323 H   0  0  0  0  0  0  0  0  0  0  0  0
    3.0872   -0.1194    0.6905 H   0  0  0  0  0  0  0  0  0  0  0  0
  1  2  1  0
  2  3  1  0
  3  4  2  0
  3  5  1  0
  2  6  1  0
  6  7  1  0
  7  8  1  0
  8  9  1  0
  8  6  1  0
  1 10  1  0
  1 11  1  0
  2 12  1  6
  5 13  1  0
  6 14  1  6
  7 15  1  0
  7 16  1  0
  8 17  1  6
  9 18  1  0
  9 19  1  0
M  END
$$$$
