
     RDKit          3D

 14 14  0  0  0  0  0  0  0  0999 V2000
   -1.7222   -1.2539   -0.3839 N   0  0  0  0  0  0  0  0  0  0  0  0
   -0.4463   -0.7071   -0.0742 C   0  0  0  0  0  0  0  0  0  0  0  0
    0.5774   -1.4832   -0.0586 N   0  0  0  0  0  0  0  0  0  0  0  0
    1.8576   -0.9528    0.2487 C   0  0  0  0  0  0  0  0  0  0  0  0
    2.8625   -1.7075    0.2654 O   0  0  0  0  0  0  0  0  0  0  0  0
    1.9729    0.4403    0.5342 N   0  0  0  0  0  0  0  0  0  0  0  0
    0.9517    1.2301    0.5216 C   0  0  0  0  0  0  0  0  0  0  0  0
   -0.3950    0.7465    0.2126 C   0  0  1  0  0  0  0  0  0  0  0  0
   -1.0234    1.4913   -0.7827 O   0  0  0  0  0  0  0  0  0  0  0  0
   -2.3251   -1.6472    0.3659 H   0  0  0  0  0  0  0  0  0  0  0  0
   -2.0611   -1.2639   -1.3633 H   0  0  0  0  0  0  0  0  0  0  0  0
    1.1524    2.2660    0.7524 H   0  0  0  0  0  0  0  0  0  0  0  0
   -1.0273    0.8947    1.1376 H   0  0  0  0  0  0  0  0  0  0  0  0
   -0.3740    1.9468   -1.3759 H   0  0  0  0  0  0  0  0  0  0  0  0
  1  2  1  0
  2  3  2  0
  3  4  1  0
  4  5  2  0
  4  6  1  0
  6  7  2  0
  7  8  1  0
  8  9  1  0
  8  2  1  0
  1 10  1  0
  1 11  1  0
  7 12  1  0
  8 13  1  1
  9 14  1  0
M  END
$$$$

     RDKit          3D

 14 14  0  0  0  0  0  0  0  0999 V2000
   -1.9670   -0.8589    0.0209 N   0  0  0  0  0  0  0  0  0  0  0  0
   -0.5697   -0.4618    0.1787 C   0  0  0  0  0  0  0  0  0  0  0  0
    0.2474   -1.3541    0.5635 N   0  0  0  0  0  0  0  0  0  0  0  0
    1.6226   -1.0814    0.7495 C   0  0  0  0  0  0  0  0  0  0  0  0
    2.4127   -1.9930    1.1343 O   0  0  0  0  0  0  0  0  0  0  0  0
    2.0601    0.2393    0.4875 N   0  0  0  0  0  0  0  0  0  0  0  0
    1.2572    1.1527    0.0998 C   0  0  0  0  0  0  0  0  0  0  0  0
   -0.1738    0.9133   -0.1052 C   0  0  1  0  0  0  0  0  0  0  0  0
   -0.4247    1.2582   -1.4536 O   0  0  0  0  0  0  0  0  0  0  0  0
   -2.1997   -1.3151   -0.8821 H   0  0  0  0  0  0  0  0  0  0  0  0
   -2.6731   -0.6947    0.7610 H   0  0  0  0  0  0  0  0  0  0  0  0
    1.6336    2.1770   -0.0964 H   0  0  0  0  0  0  0  0  0  0  0  0
   -0.7930    1.5649    0.5672 H   0  0  0  0  0  0  0  0  0  0  0  0
   -0.4325    0.4536   -2.0251 H   0  0  0  0  0  0  0  0  0  0  0  0
  1  2  1  0
  2  3  2  0
  3  4  1  0
  4  5  2  0
  4  6  1  0
  6  7  2  0
  7  8  1  0
  8  9  1  0
  8  2  1  0
  1 10  1  0
  1 11  1  0
  7 12  1  0
  8 13  1  1
  9 14  1  0
M  END
$$$$

     RDKit          3D

 14 14  0  0  0  0  0  0  0  0999 V2000
    1.9999    0.0074   -0.8848 N   0  0  0  0  0  0  0  0  0  0  0  0
    0.7300    0.2934   -0.2559 C   0  0  0  0  0  0  0  0  0  0  0  0
    0.2859    1.4895   -0.1929 N   0  0  0  0  0  0  0  0  0  0  0  0
   -0.9549    1.8272    0.4133 C   0  0  0  0  0  0  0  0  0  0  0  0
   -1.3854    3.0000    0.4724 O   0  0  0  0  0  0  0  0  0  0  0  0
   -1.7059    0.7598    0.9623 N   0  0  0  0  0  0  0  0  0  0  0  0
   -1.2805   -0.4471    0.9108 C   0  0  0  0  0  0  0  0  0  0  0  0
   -0.0201   -0.8296    0.3007 C   0  0  1  0  0  0  0  0  0  0  0  0
   -0.2614   -1.8304   -0.6591 O   0  0  0  0  0  0  0  0  0  0  0  0
    2.7452   -0.3824   -0.2941 H   0  0  0  0  0  0  0  0  0  0  0  0
    2.0859    0.2087   -1.8823 H   0  0  0  0  0  0  0  0  0  0  0  0
   -1.9429   -1.2230    1.3713 H   0  0  0  0  0  0  0  0  0  0  0  0
    0.5752   -1.3603    1.1119 H   0  0  0  0  0  0  0  0  0  0  0  0
   -0.8709   -1.5132   -1.3736 H   0  0  0  0  0  0  0  0  0  0  0  0
  1  2  1  0
  2  3  2  0
  3  4  1  0
  4  5  2  0
  4  6  1  0
  6  7  2  0
  7  8  1  0
  8  9  1  0
  8  2  1  0
  1 10  1  0
  1 11  1  0
  7 12  1  0
  8 13  1  1
  9 14  1  0
M  END
$$$$

     RDKit          3D

 14 14  0  0  0  0  0  0  0  0999 V2000
   -1.8325    1.0162   -0.4266 N   0  0  0  0  0  0  0  0  0  0  0  0
   -0.4690    0.6481   -0.1274 C   0  0  0  0  0  0  0  0  0  0  0  0
    0.3676    1.5654    0.1114 N   0  0  0  0  0  0  0  0  0  0  0  0
    1.7262    1.2852    0.4137 C   0  0  0  0  0  0  0  0  0  0  0  0
    2.5696    2.1922    0.6536 O   0  0  0  0  0  0  0  0  0  0  0  0
    2.0606   -0.0947    0.4246 N   0  0  0  0  0  0  0  0  0  0  0  0
    1.2416   -1.0391    0.1885 C   0  0  0  0  0  0  0  0  0  0  0  0
   -0.1612   -0.7724   -0.1247 C   0  0  1  0  0  0  0  0  0  0  0  0
   -1.0308   -1.5067    0.7027 O   0  0  0  0  0  0  0  0  0  0  0  0
   -2.5501    1.1086    0.3215 H   0  0  0  0  0  0  0  0  0  0  0  0
   -2.0336    1.1788   -1.4389 H   0  0  0  0  0  0  0  0  0  0  0  0
    1.6143   -2.0898    0.2243 H   0  0  0  0  0  0  0  0  0  0  0  0
   -0.3268   -1.1258   -1.1932 H   0  0  0  0  0  0  0  0  0  0  0  0
   -1.1758   -2.3658    0.2706 H   0  0  0  0  0  0  0  0  0  0  0  0
  1  2  1  0
  2  3  2  0
  3  4  1  0
  4  5  2  0
  4  6  1  0
  6  7  2  0
  7  8  1  0
  8  9  1  0
  8  2  1  0
  1 10  1  0
  1 11  1  0
  7 12  1  0
  8 13  1  6
  9 14  1  0
M  END
$$$$

     RDKit          3D

 14 14  0  0  0  0  0  0  0  0999 V2000
    2.0722    0.4700   -0.4894 N   0  0  0  0  0  0  0  0  0  0  0  0
    0.6697    0.4685   -0.1949 C   0  0  0  0  0  0  0  0  0  0  0  0
   -0.0312    1.5039   -0.4972 N   0  0  0  0  0  0  0  0  0  0  0  0
   -1.4156    1.5284   -0.2176 C   0  0  0  0  0  0  0  0  0  0  0  0
   -2.1243    2.5200   -0.4993 O   0  0  0  0  0  0  0  0  0  0  0  0
   -2.0087    0.3996    0.3965 N   0  0  0  0  0  0  0  0  0  0  0  0
   -1.3323   -0.6400    0.7057 C   0  0  0  0  0  0  0  0  0  0  0  0
    0.1058   -0.7303    0.4435 C   0  0  1  0  0  0  0  0  0  0  0  0
    0.4416   -1.8352   -0.3372 O   0  0  0  0  0  0  0  0  0  0  0  0
    2.8120    0.4528    0.2442 H   0  0  0  0  0  0  0  0  0  0  0  0
    2.3823    0.4889   -1.4806 H   0  0  0  0  0  0  0  0  0  0  0  0
   -1.8349   -1.4878    1.1789 H   0  0  0  0  0  0  0  0  0  0  0  0
    0.6196   -0.8405    1.4433 H   0  0  0  0  0  0  0  0  0  0  0  0
   -0.3562   -2.2983   -0.6959 H   0  0  0  0  0  0  0  0  0  0  0  0
  1  2  1  0
  2  3  2  0
  3  4  1  0
  4  5  2  0
  4  6  1  0
  6  7  2  0
  7  8  1  0
  8  9  1  0
  8  2  1  0
  1 10  1  0
  1 11  1  0
  7 12  1  0
  8 13  1  1
  9 14  1  0
M  END
$$$$

     RDKit          3D

 14 14  0  0  0  0  0  0  0  0999 V2000
   -1.4861   -1.6313    0.1914 N   0  0  0  0  0  0  0  0  0  0  0  0
   -0.3170   -0.7995    0.0116 C   0  0  0  0  0  0  0  0  0  0  0  0
    0.7319   -1.2718   -0.5475 N   0  0  0  0  0  0  0  0  0  0  0  0
    1.9158   -0.5255   -0.7609 C   0  0  0  0  0  0  0  0  0  0  0  0
    2.9215   -1.0513   -1.3208 O   0  0  0  0  0  0  0  0  0  0  0  0
    1.9035    0.8149   -0.3186 N   0  0  0  0  0  0  0  0  0  0  0  0
    0.8739    1.3106    0.2407 C   0  0  0  0  0  0  0  0  0  0  0  0
   -0.3638    0.5871    0.4823 C   0  0  1  0  0  0  0  0  0  0  0  0
   -1.4757    1.2598   -0.0509 O   0  0  0  0  0  0  0  0  0  0  0  0
   -1.8408   -1.7025    1.1594 H   0  0  0  0  0  0  0  0  0  0  0  0
   -1.8809   -2.0884   -0.6364 H   0  0  0  0  0  0  0  0  0  0  0  0
    0.9164    2.3619    0.5674 H   0  0  0  0  0  0  0  0  0  0  0  0
   -0.5610    0.5012    1.6049 H   0  0  0  0  0  0  0  0  0  0  0  0
   -1.3374    2.2349   -0.1014 H   0  0  0  0  0  0  0  0  0  0  0  0
  1  2  1  0
  2  3  2  0
  3  4  1  0
  4  5  2  0
  4  6  1  0
  6  7  2  0
  7  8  1  0
  8  9  1  0
  8  2  1  0
  1 10  1  0
  1 11  1  0
  7 12  1  0
  8 13  1  1
  9 14  1  0
M  END
$$$$

     RDKit          3D

 14 14  0  0  0  0  0  0  0  0999 V2000
    1.8479   -1.1110   -0.2273 N   0  0  0  0  0  0  0  0  0  0  0  0
    0.8120   -0.1332   -0.1169 C   0  0  0  0  0  0  0  0  0  0  0  0
    1.0556    1.0380   -0.5620 N   0  0  0  0  0  0  0  0  0  0  0  0
    0.0361    2.0193   -0.4590 C   0  0  0  0  0  0  0  0  0  0  0  0
    0.2407    3.1819   -0.8863 O   0  0  0  0  0  0  0  0  0  0  0  0
   -1.1922    1.6522    0.1285 N   0  0  0  0  0  0  0  0  0  0  0  0
   -1.4586    0.4903    0.5797 C   0  0  0  0  0  0  0  0  0  0  0  0
   -0.4485   -0.5833    0.5079 C   0  0  1  0  0  0  0  0  0  0  0  0
   -0.9116   -1.6623   -0.2812 O   0  0  0  0  0  0  0  0  0  0  0  0
    2.1631   -1.6224    0.6158 H   0  0  0  0  0  0  0  0  0  0  0  0
    2.2923   -1.3220   -1.1291 H   0  0  0  0  0  0  0  0  0  0  0  0
   -2.4450    0.3431    1.0074 H   0  0  0  0  0  0  0  0  0  0  0  0
   -0.2439   -0.9259    1.5467 H   0  0  0  0  0  0  0  0  0  0  0  0
   -1.7479   -1.3645   -0.7242 H   0  0  0  0  0  0  0  0  0  0  0  0
  1  2  1  0
  2  3  2  0
  3  4  1  0
  4  5  2  0
  4  6  1  0
  6  7  2  0
  7  8  1  0
  8  9  1  0
  8  2  1  0
  1 10  1  0
  1 11  1  0
  7 12  1  0
  8 13  1  1
  9 14  1  0
M  END
$$$$

     RDKit          3D

 14 14  0  0  0  0  0  0  0  0999 V2000
   -1.1837   -1.5233    0.8010 N   0  0  0  0  0  0  0  0  0  0  0  0
   -0.1242   -0.7133    0.2241 C   0  0  0  0  0  0  0  0  0  0  0  0
    0.9625   -1.2439   -0.1693 N   0  0  0  0  0  0  0  0  0  0  0  0
    2.0378   -0.5184   -0.7406 C   0  0  0  0  0  0  0  0  0  0  0  0
    3.1044   -1.0659   -1.1229 O   0  0  0  0  0  0  0  0  0  0  0  0
    1.8083    0.8771   -0.8445 N   0  0  0  0  0  0  0  0  0  0  0  0
    0.7393    1.4470   -0.4645 C   0  0  0  0  0  0  0  0  0  0  0  0
   -0.3790    0.7222    0.1254 C   0  0  1  0  0  0  0  0  0  0  0  0
   -1.5872    0.9842   -0.5512 O   0  0  0  0  0  0  0  0  0  0  0  0
   -0.9595   -2.3245    1.4180 H   0  0  0  0  0  0  0  0  0  0  0  0
   -2.1807   -1.3157    0.6069 H   0  0  0  0  0  0  0  0  0  0  0  0
    0.6068    2.5483   -0.5675 H   0  0  0  0  0  0  0  0  0  0  0  0
   -0.4919    1.1531    1.1825 H   0  0  0  0  0  0  0  0  0  0  0  0
   -2.3528    0.9733    0.1026 H   0  0  0  0  0  0  0  0  0  0  0  0
  1  2  1  0
  2  3  2  0
  3  4  1  0
  4  5  2  0
  4  6  1  0
  6  7  2  0
  7  8  1  0
  8  9  1  0
  8  2  1  0
  1 10  1  0
  1 11  1  0
  7 12  1  0
  8 13  1  1
  9 14  1  0
M  END
$$$$
