
     RDKit          3D

 25 25  0  0  0  0  0  0  0  0999 V2000
    2.6347    1.2331    0.5802 C   0  0  0  0  0  0  0  0  0  0  0  0
    1.5539    0.4034    0.1259 N   0  0  0  0  0  0  0  0  0  0  0  0
    1.8306   -0.6875   -0.7838 C   0  0  0  0  0  0  0  0  0  0  0  0
    0.6612   -1.6586   -0.5608 C   0  0  0  0  0  0  0  0  0  0  0  0
   -0.4623   -1.0349   -1.0705 O   0  0  0  0  0  0  0  0  0  0  0  0
   -0.8984   -0.0339   -0.2219 C   0  0  0  0  0  0  0  0  0  0  0  0
   -1.6089    1.0683   -1.0207 C   0  0  0  0  0  0  0  0  0  0  0  0
   -2.0105    2.0225   -0.1061 O   0  0  0  0  0  0  0  0  0  0  0  0
   -1.9597   -0.5891    0.7105 C   0  0  0  0  0  0  0  0  0  0  0  0
   -1.5096   -1.6330    1.4975 O   0  0  0  0  0  0  0  0  0  0  0  0
    0.2155    0.5910    0.5197 C   0  0  0  0  0  0  0  0  0  0  0  0
   -0.0258    1.3000    1.5151 O   0  0  0  0  0  0  0  0  0  0  0  0
    2.9315    0.8931    1.5949 H   0  0  0  0  0  0  0  0  0  0  0  0
    3.5012    1.1240   -0.1104 H   0  0  0  0  0  0  0  0  0  0  0  0
    2.3238    2.3017    0.5922 H   0  0  0  0  0  0  0  0  0  0  0  0
    2.7525   -1.2522   -0.4758 H   0  0  0  0  0  0  0  0  0  0  0  0
    1.8840   -0.3567   -1.8370 H   0  0  0  0  0  0  0  0  0  0  0  0
    0.8845   -2.6206   -1.0560 H   0  0  0  0  0  0  0  0  0  0  0  0
    0.6033   -1.7848    0.5388 H   0  0  0  0  0  0  0  0  0  0  0  0
   -2.4413    0.6148   -1.5908 H   0  0  0  0  0  0  0  0  0  0  0  0
   -0.9119    1.5192   -1.7610 H   0  0  0  0  0  0  0  0  0  0  0  0
   -2.9027    1.8561    0.2715 H   0  0  0  0  0  0  0  0  0  0  0  0
   -2.3753    0.2126    1.3621 H   0  0  0  0  0  0  0  0  0  0  0  0
   -2.8152   -0.9672    0.1156 H   0  0  0  0  0  0  0  0  0  0  0  0
   -1.8552   -2.5213    1.1707 H   0  0  0  0  0  0  0  0  0  0  0  0
  1  2  1  0
  2  3  1  0
  3  4  1  0
  4  5  1  0
  5  6  1  0
  6  7  1  0
  7  8  1  0
  6  9  1  0
  9 10  1  0
  6 11  1  0
 11 12  2  0
 11  2  1  0
  1 13  1  0
  1 14  1  0
  1 15  1  0
  3 16  1  0
  3 17  1  0
  4 18  1  0
  4 19  1  0
  7 20  1  0
  7 21  1  0
  8 22  1  0
  9 23  1  0
  9 24  1  0
 10 25  1  0
M  END
$$$$

     RDKit          3D

 25 25  0  0  0  0  0  0  0  0999 V2000
    2.7429    1.1817    0.4118 C   0  0  0  0  0  0  0  0  0  0  0  0
    1.5549    0.3577    0.1709 N   0  0  0  0  0  0  0  0  0  0  0  0
    1.7253   -0.9870   -0.3034 C   0  0  0  0  0  0  0  0  0  0  0  0
    0.5194   -1.5753   -0.9471 C   0  0  0  0  0  0  0  0  0  0  0  0
   -0.4554   -0.6576   -1.2920 O   0  0  0  0  0  0  0  0  0  0  0  0
   -0.8840    0.1086   -0.2145 C   0  0  0  0  0  0  0  0  0  0  0  0
   -1.6009   -0.7576    0.8087 C   0  0  0  0  0  0  0  0  0  0  0  0
   -2.6934   -1.3274    0.1555 O   0  0  0  0  0  0  0  0  0  0  0  0
   -1.9096    1.0909   -0.7418 C   0  0  0  0  0  0  0  0  0  0  0  0
   -2.3364    1.8560    0.3386 O   0  0  0  0  0  0  0  0  0  0  0  0
    0.2440    0.8497    0.3923 C   0  0  0  0  0  0  0  0  0  0  0  0
    0.1135    1.8829    1.0883 O   0  0  0  0  0  0  0  0  0  0  0  0
    3.4248    0.5418    1.0326 H   0  0  0  0  0  0  0  0  0  0  0  0
    3.2792    1.3958   -0.5333 H   0  0  0  0  0  0  0  0  0  0  0  0
    2.4816    2.0971    0.9571 H   0  0  0  0  0  0  0  0  0  0  0  0
    2.5886   -0.9955   -1.0233 H   0  0  0  0  0  0  0  0  0  0  0  0
    2.0703   -1.6289    0.5511 H   0  0  0  0  0  0  0  0  0  0  0  0
    0.1067   -2.3824   -0.2744 H   0  0  0  0  0  0  0  0  0  0  0  0
    0.8028   -2.1101   -1.8810 H   0  0  0  0  0  0  0  0  0  0  0  0
   -0.9418   -1.4816    1.2871 H   0  0  0  0  0  0  0  0  0  0  0  0
   -2.0342   -0.0554    1.5776 H   0  0  0  0  0  0  0  0  0  0  0  0
   -2.5362   -2.3070    0.0208 H   0  0  0  0  0  0  0  0  0  0  0  0
   -1.4926    1.6767   -1.5602 H   0  0  0  0  0  0  0  0  0  0  0  0
   -2.7962    0.4666   -1.0464 H   0  0  0  0  0  0  0  0  0  0  0  0
   -1.9734    2.7602    0.3513 H   0  0  0  0  0  0  0  0  0  0  0  0
  1  2  1  0
  2  3  1  0
  3  4  1  0
  4  5  1  0
  5  6  1  0
  6  7  1  0
  7  8  1  0
  6  9  1  0
  9 10  1  0
  6 11  1  0
 11 12  2  0
 11  2  1  0
  1 13  1  0
  1 14  1  0
  1 15  1  0
  3 16  1  0
  3 17  1  0
  4 18  1  0
  4 19  1  0
  7 20  1  0
  7 21  1  0
  8 22  1  0
  9 23  1  0
  9 24  1  0
 10 25  1  0
M  END
$$$$

     RDKit          3D

 25 25  0  0  0  0  0  0  0  0999 V2000
   -2.8971    0.6420    0.6797 C   0  0  0  0  0  0  0  0  0  0  0  0
   -1.6542    0.1667    0.1222 N   0  0  0  0  0  0  0  0  0  0  0  0
   -1.7613   -0.7831   -0.9981 C   0  0  0  0  0  0  0  0  0  0  0  0
   -0.4313   -1.5481   -0.9798 C   0  0  0  0  0  0  0  0  0  0  0  0
    0.5730   -0.6337   -1.1834 O   0  0  0  0  0  0  0  0  0  0  0  0
    0.8738    0.1391   -0.0655 C   0  0  0  0  0  0  0  0  0  0  0  0
    1.6999    1.3167   -0.5380 C   0  0  0  0  0  0  0  0  0  0  0  0
    2.0623    2.1627    0.4898 O   0  0  0  0  0  0  0  0  0  0  0  0
    1.7461   -0.6970    0.8776 C   0  0  0  0  0  0  0  0  0  0  0  0
    2.9184   -1.0791    0.2594 O   0  0  0  0  0  0  0  0  0  0  0  0
   -0.3725    0.5641    0.5939 C   0  0  0  0  0  0  0  0  0  0  0  0
   -0.3197    1.3030    1.6088 O   0  0  0  0  0  0  0  0  0  0  0  0
   -2.6535    1.5258    1.3038 H   0  0  0  0  0  0  0  0  0  0  0  0
   -3.4006   -0.1424    1.3037 H   0  0  0  0  0  0  0  0  0  0  0  0
   -3.5867    0.9702   -0.1320 H   0  0  0  0  0  0  0  0  0  0  0  0
   -2.5900   -1.4945   -0.8485 H   0  0  0  0  0  0  0  0  0  0  0  0
   -1.8345   -0.2053   -1.9428 H   0  0  0  0  0  0  0  0  0  0  0  0
   -0.4004   -2.0584   -0.0009 H   0  0  0  0  0  0  0  0  0  0  0  0
   -0.4021   -2.2923   -1.7981 H   0  0  0  0  0  0  0  0  0  0  0  0
    2.6154    0.9609   -1.0470 H   0  0  0  0  0  0  0  0  0  0  0  0
    1.1458    1.9215   -1.2847 H   0  0  0  0  0  0  0  0  0  0  0  0
    2.3053    3.0402    0.0662 H   0  0  0  0  0  0  0  0  0  0  0  0
    1.2127   -1.6288    1.1704 H   0  0  0  0  0  0  0  0  0  0  0  0
    1.9352   -0.1476    1.8198 H   0  0  0  0  0  0  0  0  0  0  0  0
    3.2158   -2.0026    0.5235 H   0  0  0  0  0  0  0  0  0  0  0  0
  1  2  1  0
  2  3  1  0
  3  4  1  0
  4  5  1  0
  5  6  1  0
  6  7  1  0
  7  8  1  0
  6  9  1  0
  9 10  1  0
  6 11  1  0
 11 12  2  0
 11  2  1  0
  1 13  1  0
  1 14  1  0
  1 15  1  0
  3 16  1  0
  3 17  1  0
  4 18  1  0
  4 19  1  0
  7 20  1  0
  7 21  1  0
  8 22  1  0
  9 23  1  0
  9 24  1  0
 10 25  1  0
M  END
$$$$

     RDKit          3D

 25 25  0  0  0  0  0  0  0  0999 V2000
    2.7606    1.0272   -0.2974 C   0  0  0  0  0  0  0  0  0  0  0  0
    1.5845    0.2366   -0.0141 N   0  0  0  0  0  0  0  0  0  0  0  0
    1.6727   -1.1787    0.0036 C   0  0  0  0  0  0  0  0  0  0  0  0
    0.4189   -1.8957    0.3256 C   0  0  0  0  0  0  0  0  0  0  0  0
   -0.5518   -1.1383    0.9463 O   0  0  0  0  0  0  0  0  0  0  0  0
   -0.8610    0.0392    0.3314 C   0  0  0  0  0  0  0  0  0  0  0  0
   -1.9494    0.7113    1.1661 C   0  0  0  0  0  0  0  0  0  0  0  0
   -2.3506    1.9103    0.6525 O   0  0  0  0  0  0  0  0  0  0  0  0
   -1.4231   -0.1317   -1.0612 C   0  0  0  0  0  0  0  0  0  0  0  0
   -2.5954   -0.8936   -0.9692 O   0  0  0  0  0  0  0  0  0  0  0  0
    0.3512    0.8789    0.2443 C   0  0  0  0  0  0  0  0  0  0  0  0
    0.3411    2.1366    0.3883 O   0  0  0  0  0  0  0  0  0  0  0  0
    2.4127    1.9460   -0.8371 H   0  0  0  0  0  0  0  0  0  0  0  0
    3.5002    0.4732   -0.9101 H   0  0  0  0  0  0  0  0  0  0  0  0
    3.1724    1.3617    0.6646 H   0  0  0  0  0  0  0  0  0  0  0  0
    2.5018   -1.4572    0.7128 H   0  0  0  0  0  0  0  0  0  0  0  0
    2.0381   -1.5653   -0.9935 H   0  0  0  0  0  0  0  0  0  0  0  0
   -0.0541   -2.3913   -0.5693 H   0  0  0  0  0  0  0  0  0  0  0  0
    0.6690   -2.7349    1.0131 H   0  0  0  0  0  0  0  0  0  0  0  0
   -2.8332    0.0141    1.1126 H   0  0  0  0  0  0  0  0  0  0  0  0
   -1.6357    0.7268    2.2191 H   0  0  0  0  0  0  0  0  0  0  0  0
   -1.8512    2.6974    0.9777 H   0  0  0  0  0  0  0  0  0  0  0  0
   -1.6582    0.8578   -1.5040 H   0  0  0  0  0  0  0  0  0  0  0  0
   -0.6728   -0.6025   -1.7238 H   0  0  0  0  0  0  0  0  0  0  0  0
   -2.9866   -1.0277   -1.8785 H   0  0  0  0  0  0  0  0  0  0  0  0
  1  2  1  0
  2  3  1  0
  3  4  1  0
  4  5  1  0
  5  6  1  0
  6  7  1  0
  7  8  1  0
  6  9  1  0
  9 10  1  0
  6 11  1  0
 11 12  2  0
 11  2  1  0
  1 13  1  0
  1 14  1  0
  1 15  1  0
  3 16  1  0
  3 17  1  0
  4 18  1  0
  4 19  1  0
  7 20  1  0
  7 21  1  0
  8 22  1  0
  9 23  1  0
  9 24  1  0
 10 25  1  0
M  END
$$$$

     RDKit          3D

 25 25  0  0  0  0  0  0  0  0999 V2000
   -2.4763   -0.3344    1.5530 C   0  0  0  0  0  0  0  0  0  0  0  0
   -1.5077   -0.2294    0.4947 N   0  0  0  0  0  0  0  0  0  0  0  0
   -1.8988   -0.2592   -0.9178 C   0  0  0  0  0  0  0  0  0  0  0  0
   -0.9365    0.7173   -1.6094 C   0  0  0  0  0  0  0  0  0  0  0  0
    0.2926    0.0993   -1.6155 O   0  0  0  0  0  0  0  0  0  0  0  0
    0.8903    0.0360   -0.3588 C   0  0  0  0  0  0  0  0  0  0  0  0
    1.7544    1.2712   -0.2250 C   0  0  0  0  0  0  0  0  0  0  0  0
    2.4099    1.3356    0.9843 O   0  0  0  0  0  0  0  0  0  0  0  0
    1.7679   -1.2226   -0.3789 C   0  0  0  0  0  0  0  0  0  0  0  0
    2.4262   -1.4073    0.8224 O   0  0  0  0  0  0  0  0  0  0  0  0
   -0.1017   -0.0891    0.7285 C   0  0  0  0  0  0  0  0  0  0  0  0
    0.2731   -0.0752    1.9131 O   0  0  0  0  0  0  0  0  0  0  0  0
   -2.5009    0.5698    2.2033 H   0  0  0  0  0  0  0  0  0  0  0  0
   -2.2384   -1.2086    2.1672 H   0  0  0  0  0  0  0  0  0  0  0  0
   -3.4671   -0.4493    1.0905 H   0  0  0  0  0  0  0  0  0  0  0  0
   -1.6598   -1.2898   -1.2689 H   0  0  0  0  0  0  0  0  0  0  0  0
   -2.9360    0.0338   -1.0731 H   0  0  0  0  0  0  0  0  0  0  0  0
   -1.2357    0.8838   -2.6612 H   0  0  0  0  0  0  0  0  0  0  0  0
   -0.8885    1.6730   -1.0524 H   0  0  0  0  0  0  0  0  0  0  0  0
    2.4383    1.2736   -1.0962 H   0  0  0  0  0  0  0  0  0  0  0  0
    1.1118    2.1679   -0.3360 H   0  0  0  0  0  0  0  0  0  0  0  0
    2.2617    2.1824    1.4761 H   0  0  0  0  0  0  0  0  0  0  0  0
    2.4884   -1.1691   -1.2200 H   0  0  0  0  0  0  0  0  0  0  0  0
    1.1474   -2.1223   -0.5629 H   0  0  0  0  0  0  0  0  0  0  0  0
    2.5854   -2.3872    0.9434 H   0  0  0  0  0  0  0  0  0  0  0  0
  1  2  1  0
  2  3  1  0
  3  4  1  0
  4  5  1  0
  5  6  1  0
  6  7  1  0
  7  8  1  0
  6  9  1  0
  9 10  1  0
  6 11  1  0
 11 12  2  0
 11  2  1  0
  1 13  1  0
  1 14  1  0
  1 15  1  0
  3 16  1  0
  3 17  1  0
  4 18  1  0
  4 19  1  0
  7 20  1  0
  7 21  1  0
  8 22  1  0
  9 23  1  0
  9 24  1  0
 10 25  1  0
M  END
$$$$

     RDKit          3D

 25 25  0  0  0  0  0  0  0  0999 V2000
    2.5107    1.0857    0.8613 C   0  0  0  0  0  0  0  0  0  0  0  0
    1.4382    0.2304    0.3874 N   0  0  0  0  0  0  0  0  0  0  0  0
    1.7305   -0.8827   -0.4693 C   0  0  0  0  0  0  0  0  0  0  0  0
    0.5983   -1.3478   -1.3138 C   0  0  0  0  0  0  0  0  0  0  0  0
   -0.6310   -1.3386   -0.6897 O   0  0  0  0  0  0  0  0  0  0  0  0
   -0.9684   -0.1737   -0.0676 C   0  0  0  0  0  0  0  0  0  0  0  0
   -1.5040    0.8866   -1.0200 C   0  0  0  0  0  0  0  0  0  0  0  0
   -1.7958    2.0050   -0.2088 O   0  0  0  0  0  0  0  0  0  0  0  0
   -2.1342   -0.4901    0.8823 C   0  0  0  0  0  0  0  0  0  0  0  0
   -1.6565   -1.4490    1.7823 O   0  0  0  0  0  0  0  0  0  0  0  0
    0.0800    0.4480    0.7405 C   0  0  0  0  0  0  0  0  0  0  0  0
   -0.2108    1.1543    1.7187 O   0  0  0  0  0  0  0  0  0  0  0  0
    2.3585    1.3939    1.9168 H   0  0  0  0  0  0  0  0  0  0  0  0
    3.4646    0.5251    0.7697 H   0  0  0  0  0  0  0  0  0  0  0  0
    2.5378    1.9793    0.1859 H   0  0  0  0  0  0  0  0  0  0  0  0
    2.1536   -1.7351    0.1398 H   0  0  0  0  0  0  0  0  0  0  0  0
    2.5602   -0.5555   -1.1619 H   0  0  0  0  0  0  0  0  0  0  0  0
    0.5526   -0.8226   -2.3050 H   0  0  0  0  0  0  0  0  0  0  0  0
    0.8080   -2.4195   -1.5807 H   0  0  0  0  0  0  0  0  0  0  0  0
   -0.7948    1.1444   -1.8107 H   0  0  0  0  0  0  0  0  0  0  0  0
   -2.4696    0.5059   -1.4082 H   0  0  0  0  0  0  0  0  0  0  0  0
   -1.2840    2.7999   -0.4866 H   0  0  0  0  0  0  0  0  0  0  0  0
   -2.5112    0.4099    1.3790 H   0  0  0  0  0  0  0  0  0  0  0  0
   -2.8967   -0.9881    0.2407 H   0  0  0  0  0  0  0  0  0  0  0  0
   -1.9360   -2.3656    1.5178 H   0  0  0  0  0  0  0  0  0  0  0  0
  1  2  1  0
  2  3  1  0
  3  4  1  0
  4  5  1  0
  5  6  1  0
  6  7  1  0
  7  8  1  0
  6  9  1  0
  9 10  1  0
  6 11  1  0
 11 12  2  0
 11  2  1  0
  1 13  1  0
  1 14  1  0
  1 15  1  0
  3 16  1  0
  3 17  1  0
  4 18  1  0
  4 19  1  0
  7 20  1  0
  7 21  1  0
  8 22  1  0
  9 23  1  0
  9 24  1  0
 10 25  1  0
M  END
$$$$

     RDKit          3D

 25 25  0  0  0  0  0  0  0  0999 V2000
    2.6183    1.3574   -0.6123 C   0  0  0  0  0  0  0  0  0  0  0  0
    1.4678    0.7277   -0.0037 N   0  0  0  0  0  0  0  0  0  0  0  0
    1.5128    0.2281    1.3580 C   0  0  0  0  0  0  0  0  0  0  0  0
    0.9172   -1.1331    1.4086 C   0  0  0  0  0  0  0  0  0  0  0  0
    0.0442   -1.4677    0.4276 O   0  0  0  0  0  0  0  0  0  0  0  0
   -0.6954   -0.4750   -0.1361 C   0  0  0  0  0  0  0  0  0  0  0  0
   -1.7489    0.1029    0.7726 C   0  0  0  0  0  0  0  0  0  0  0  0
   -2.4585    1.1101    0.1212 O   0  0  0  0  0  0  0  0  0  0  0  0
   -1.4298   -1.0895   -1.3358 C   0  0  0  0  0  0  0  0  0  0  0  0
   -2.2175   -0.1416   -1.9800 O   0  0  0  0  0  0  0  0  0  0  0  0
    0.2292    0.5527   -0.6769 C   0  0  0  0  0  0  0  0  0  0  0  0
   -0.0155    1.2666   -1.6805 O   0  0  0  0  0  0  0  0  0  0  0  0
    3.5464    0.9590   -0.1157 H   0  0  0  0  0  0  0  0  0  0  0  0
    2.6312    2.4450   -0.5258 H   0  0  0  0  0  0  0  0  0  0  0  0
    2.7265    1.1032   -1.6845 H   0  0  0  0  0  0  0  0  0  0  0  0
    2.5642    0.1957    1.7412 H   0  0  0  0  0  0  0  0  0  0  0  0
    0.9799    0.9210    2.0425 H   0  0  0  0  0  0  0  0  0  0  0  0
    1.7689   -1.8760    1.3662 H   0  0  0  0  0  0  0  0  0  0  0  0
    0.4269   -1.3492    2.3942 H   0  0  0  0  0  0  0  0  0  0  0  0
   -2.4892   -0.7252    0.9522 H   0  0  0  0  0  0  0  0  0  0  0  0
   -1.3602    0.5201    1.7053 H   0  0  0  0  0  0  0  0  0  0  0  0
   -3.3679    0.8226   -0.1577 H   0  0  0  0  0  0  0  0  0  0  0  0
   -2.0190   -1.9335   -0.9262 H   0  0  0  0  0  0  0  0  0  0  0  0
   -0.6775   -1.4733   -2.0360 H   0  0  0  0  0  0  0  0  0  0  0  0
   -2.9541   -0.6480   -2.4185 H   0  0  0  0  0  0  0  0  0  0  0  0
  1  2  1  0
  2  3  1  0
  3  4  1  0
  4  5  1  0
  5  6  1  0
  6  7  1  0
  7  8  1  0
  6  9  1  0
  9 10  1  0
  6 11  1  0
 11 12  2  0
 11  2  1  0
  1 13  1  0
  1 14  1  0
  1 15  1  0
  3 16  1  0
  3 17  1  0
  4 18  1  0
  4 19  1  0
  7 20  1  0
  7 21  1  0
  8 22  1  0
  9 23  1  0
  9 24  1  0
 10 25  1  0
M  END
$$$$

     RDKit          3D

 25 25  0  0  0  0  0  0  0  0999 V2000
    2.6923    0.1956   -1.2196 C   0  0  0  0  0  0  0  0  0  0  0  0
    1.5382    0.0511   -0.3612 N   0  0  0  0  0  0  0  0  0  0  0  0
    1.7537    0.0891    1.0838 C   0  0  0  0  0  0  0  0  0  0  0  0
    0.4372    0.1141    1.8297 C   0  0  0  0  0  0  0  0  0  0  0  0
   -0.5003   -0.6977    1.2490 O   0  0  0  0  0  0  0  0  0  0  0  0
   -0.8983   -0.3486   -0.0208 C   0  0  0  0  0  0  0  0  0  0  0  0
   -1.6943    0.9365    0.0213 C   0  0  0  0  0  0  0  0  0  0  0  0
   -2.0967    1.2831   -1.2870 O   0  0  0  0  0  0  0  0  0  0  0  0
   -1.7358   -1.5031   -0.5464 C   0  0  0  0  0  0  0  0  0  0  0  0
   -2.8313   -1.6664    0.3097 O   0  0  0  0  0  0  0  0  0  0  0  0
    0.2526   -0.1202   -0.9273 C   0  0  0  0  0  0  0  0  0  0  0  0
    0.0389   -0.0883   -2.1595 O   0  0  0  0  0  0  0  0  0  0  0  0
    3.3137    1.0666   -0.8590 H   0  0  0  0  0  0  0  0  0  0  0  0
    3.3790   -0.6818   -1.1558 H   0  0  0  0  0  0  0  0  0  0  0  0
    2.4207    0.4230   -2.2661 H   0  0  0  0  0  0  0  0  0  0  0  0
    2.2992    1.0344    1.2851 H   0  0  0  0  0  0  0  0  0  0  0  0
    2.3728   -0.7931    1.3736 H   0  0  0  0  0  0  0  0  0  0  0  0
    0.6428   -0.2854    2.8435 H   0  0  0  0  0  0  0  0  0  0  0  0
    0.1077    1.1730    1.9497 H   0  0  0  0  0  0  0  0  0  0  0  0
   -2.5747    0.8921    0.6614 H   0  0  0  0  0  0  0  0  0  0  0  0
   -0.9897    1.7389    0.3272 H   0  0  0  0  0  0  0  0  0  0  0  0
   -2.2123    2.2739   -1.3056 H   0  0  0  0  0  0  0  0  0  0  0  0
   -1.1092   -2.4163   -0.4251 H   0  0  0  0  0  0  0  0  0  0  0  0
   -2.0134   -1.3896   -1.5944 H   0  0  0  0  0  0  0  0  0  0  0  0
   -2.5928   -1.2808    1.1938 H   0  0  0  0  0  0  0  0  0  0  0  0
  1  2  1  0
  2  3  1  0
  3  4  1  0
  4  5  1  0
  5  6  1  0
  6  7  1  0
  7  8  1  0
  6  9  1  0
  9 10  1  0
  6 11  1  0
 11 12  2  0
 11  2  1  0
  1 13  1  0
  1 14  1  0
  1 15  1  0
  3 16  1  0
  3 17  1  0
  4 18  1  0
  4 19  1  0
  7 20  1  0
  7 21  1  0
  8 22  1  0
  9 23  1  0
  9 24  1  0
 10 25  1  0
M  END
$$$$
